46
Lattice="8.35212609627333 0.0 0.0 4.176063048136665 7.233153374983659 0.0 0.0 0.0 23.09264320144588" Properties=species:S:1:pos:R:3 pbc="T T T"
Pt       8.35212610       1.60736742       7.00000000 
Pt       2.78404203       1.60736742       7.00000000 
Pt       5.56808406       1.60736742       7.00000000 
Pt       9.74414711       4.01841854       7.00000000 
Pt       4.17606305       4.01841854       7.00000000 
Pt       6.96010508       4.01841854       7.00000000 
Pt      11.13616813       6.42946967       7.00000000 
Pt       5.56808406       6.42946967       7.00000000 
Pt       8.35212610       6.42946967       7.00000000 
Pt       0.00000000       0.00000000       9.27316080 
Pt       2.78404203       0.00000000       9.27316080 
Pt       5.56808406       0.00000000       9.27316080 
Pt       1.39202102       2.41105112       9.27316080 
Pt       4.17606305       2.41105112       9.27316080 
Pt       6.96010508       2.41105112       9.27316080 
Pt       2.78404203       4.82210225       9.27316080 
Pt       5.56808406       4.82210225       9.27316080 
Pt       8.35212610       4.82210225       9.27316080 
Pt       1.39202102       0.80368371      11.54632160 
Pt       4.17606305       0.80368371      11.54632160 
Pt       6.96010508       0.80368371      11.54632160 
Pt       2.78404203       3.21473483      11.54632160 
Pt       5.56808406       3.21473483      11.54632160 
Pt       8.35212610       3.21473483      11.54632160 
Pt       4.17606305       5.62578596      11.54632160 
Pt       6.96010508       5.62578596      11.54632160 
Pt       9.74414711       5.62578596      11.54632160 
Pt      12.49331650       7.21301964      16.09500263 
Pt       6.99497772       7.21301964      16.09500263 
Pt       9.74414711       7.23066384      15.94380924 
Pt       9.74414711       2.45131859      16.09500263 
Pt       4.19699943       2.42313875      15.95791590 
Pt       6.93916870       2.42313875      15.95791590 
Pt      11.13401213       4.82334702      15.94380924 
Pt       5.56808406       4.79792700      15.95791590 
Pt       8.35428210       4.82334702      15.94380924 
Re       8.36569195       1.59953517      13.70755018 
Re       2.77047618       1.59953517      13.70755018 
Re       5.56808406       1.59869488      13.73736861 
Re       9.74414711       3.99828183      13.72089045 
Re       4.16855241       4.02275481      13.73736861 
Re       6.96761572       4.02275481      13.73736861 
Re      11.15360703       6.43953802      13.72089045 
Re       5.56808406       6.44513416      13.70755018 
Re       8.33468719       6.43953802      13.72089045 
C       1.39202102       0.80368371      17.15567184 
