46
Lattice="8.317442508656132 0.0 0.0 4.158721254328066 7.20311650701278 0.0 0.0 0.0 23.05488449384088" Properties=species:S:1:pos:R:3 pbc="T T T"
Rh       8.31744251       1.60069256       7.00000000 
Rh       2.77248084       1.60069256       7.00000000 
Rh       5.54496167       1.60069256       7.00000000 
Rh       9.70368293       4.00173139       7.00000000 
Rh       4.15872125       4.00173139       7.00000000 
Rh       6.93120209       4.00173139       7.00000000 
Rh      11.08992334       6.40277023       7.00000000 
Rh       5.54496167       6.40277023       7.00000000 
Rh       8.31744251       6.40277023       7.00000000 
Rh       0.00000000       0.00000000       9.26372112 
Rh       2.77248084       0.00000000       9.26372112 
Rh       5.54496167       0.00000000       9.26372112 
Rh       1.38624042       2.40103884       9.26372112 
Rh       4.15872125       2.40103884       9.26372112 
Rh       6.93120209       2.40103884       9.26372112 
Rh       2.77248084       4.80207767       9.26372112 
Rh       5.54496167       4.80207767       9.26372112 
Rh       8.31744251       4.80207767       9.26372112 
Rh       1.38624042       0.80034628      11.52744225 
Rh       4.15872125       0.80034628      11.52744225 
Rh       6.93120209       0.80034628      11.52744225 
Rh       2.77248084       3.20138511      11.52744225 
Rh       5.54496167       3.20138511      11.52744225 
Rh       8.31744251       3.20138511      11.52744225 
Rh       4.15872125       5.60242395      11.52744225 
Rh       6.93120209       5.60242395      11.52744225 
Rh       9.70368293       5.60242395      11.52744225 
Rh      12.41674733       7.16881241      15.52644270 
Rh       6.93120209       7.12679317      15.59975224 
Rh       9.76309936       7.16881241      15.52644270 
Rh       9.63758498       2.43920051      15.59975224 
Rh       4.22481921       2.43920051      15.59975224 
Rh       6.93120209       2.38753720      15.56417977 
Rh      11.08992334       4.87068586      15.52644270 
Rh       5.53326891       4.80882849      15.56417977 
Rh       8.32913527       4.80882849      15.56417977 
Ni       8.31679339       1.59851157      13.56322798 
Ni       2.77248084       1.60069256      13.55582903 
Ni       5.54561079       1.59851157      13.56322798 
Ni       9.70524716       4.00338404      13.56322798 
Ni       4.15715702       4.00338404      13.56322798 
Ni       6.93120209       4.00173139      13.57834472 
Ni      11.08992334       6.40277023      13.52896754 
Ni       5.54274832       6.40329857      13.56322798 
Ni       8.31965586       6.40329857      13.56322798 
N       2.77248084       1.60069256      16.47048967 
