46
Lattice="8.478433752169561 0.0 0.0 4.239216876084781 7.342539013682256 0.0 0.0 0.0 23.230149560358235" Properties=species:S:1:pos:R:3 pbc="T T T"
Pd       8.47843375       1.63167534       7.00000000 
Pd       2.82614458       1.63167534       7.00000000 
Pd       5.65228917       1.63167534       7.00000000 
Pd       9.89150604       4.07918834       7.00000000 
Pd       4.23921688       4.07918834       7.00000000 
Pd       7.06536146       4.07918834       7.00000000 
Pd      11.30457834       6.52670135       7.00000000 
Pd       5.65228917       6.52670135       7.00000000 
Pd       8.47843375       6.52670135       7.00000000 
Pd       0.00000000       0.00000000       9.30753739 
Pd       2.82614458       0.00000000       9.30753739 
Pd       5.65228917       0.00000000       9.30753739 
Pd       1.41307229       2.44751300       9.30753739 
Pd       4.23921688       2.44751300       9.30753739 
Pd       7.06536146       2.44751300       9.30753739 
Pd       2.82614458       4.89502601       9.30753739 
Pd       5.65228917       4.89502601       9.30753739 
Pd       8.47843375       4.89502601       9.30753739 
Pd       1.41307229       0.81583767      11.61507478 
Pd       4.23921688       0.81583767      11.61507478 
Pd       7.06536146       0.81583767      11.61507478 
Pd       2.82614458       3.26335067      11.61507478 
Pd       5.65228917       3.26335067      11.61507478 
Pd       8.47843375       3.26335067      11.61507478 
Pd       4.23921688       5.71086368      11.61507478 
Pd       7.06536146       5.71086368      11.61507478 
Pd       9.89150604       5.71086368      11.61507478 
Pd      12.66246777       7.31067918      15.80628724 
Pd       7.12054432       7.31067918      15.80628724 
Pd       9.89150604       7.33585431      15.62747036 
Pd       9.89150604       2.51123268      15.80628724 
Pd       4.25820453       2.45847553      15.64892878 
Pd       7.04637381       2.45847553      15.64892878 
Pd      11.29878922       4.89836836      15.62747036 
Pd       5.65228917       4.87310096      15.64892878 
Pd       8.48422287       4.89836836      15.62747036 
Co       8.48518746       1.62777608      13.63501034 
Co       2.81939087       1.62777608      13.63501034 
Co       5.65228917       1.61857882      13.62997648 
Co       9.89150604       4.01068616      13.63105668 
Co       4.22787496       4.08573660      13.62997648 
Co       7.07670338       4.08573660      13.62997648 
Co      11.36390297       6.56095244      13.63105668 
Co       5.65228917       6.53449986      13.63501034 
Co       8.41910912       6.56095244      13.63105668 
N       1.41307229       0.81583767      16.69890904 
