46
Lattice="8.562378640804901 0.0 0.0 4.281189320402451 7.415237419758317 0.0 0.0 0.0 23.321537179767724" Properties=species:S:1:pos:R:3 pbc="T T T"
Pd       8.56237864       1.64783054       7.00000000 
Pd       2.85412621       1.64783054       7.00000000 
Pd       5.70825243       1.64783054       7.00000000 
Pd       9.98944175       4.11957634       7.00000000 
Pd       4.28118932       4.11957634       7.00000000 
Pd       7.13531553       4.11957634       7.00000000 
Pd      11.41650485       6.59132215       7.00000000 
Pd       5.70825243       6.59132215       7.00000000 
Pd       8.56237864       6.59132215       7.00000000 
Pd       0.00000000       0.00000000       9.33038429 
Pd       2.85412621       0.00000000       9.33038429 
Pd       5.70825243       0.00000000       9.33038429 
Pd       1.42706311       2.47174581       9.33038429 
Pd       4.28118932       2.47174581       9.33038429 
Pd       7.13531553       2.47174581       9.33038429 
Pd       2.85412621       4.94349161       9.33038429 
Pd       5.70825243       4.94349161       9.33038429 
Pd       8.56237864       4.94349161       9.33038429 
Pd       1.42706311       0.82391527      11.66076859 
Pd       4.28118932       0.82391527      11.66076859 
Pd       7.13531553       0.82391527      11.66076859 
Pd       2.85412621       3.29566108      11.66076859 
Pd       5.70825243       3.29566108      11.66076859 
Pd       8.56237864       3.29566108      11.66076859 
Pd       4.28118932       5.76740688      11.66076859 
Pd       7.13531553       5.76740688      11.66076859 
Pd       9.98944175       5.76740688      11.66076859 
Pd       8.56172892       1.64820566      13.88113561 
Pd       2.85477594       1.64820566      13.88113561 
Pd       5.70825243       1.64632647      13.87133319 
Pd       9.98944175       4.12092380      13.87583280 
Pd       4.27988676       4.12032838      13.87133319 
Pd       7.13661809       4.12032838      13.87133319 
Pd      11.41533793       6.59064842      13.87583280 
Pd       5.70825243       6.59057191      13.88113561 
Pd       8.56354557       6.59064842      13.87583280 
Pd      12.82396330       7.40391866      16.13617594 
Pd       7.15492020       7.40391866      16.13617594 
Pd       9.98944175       7.41466083      16.10460649 
Pd       9.98944175       2.49438332      16.13617594 
Pd       4.29305884       2.47859868      16.10587198 
Pd       7.12344601       2.47859868      16.10587198 
Pd      11.41600551       4.94377991      16.10460649 
Pd       5.70825243       4.92978587      16.10587198 
Pd       8.56287798       4.94377991      16.10460649 
H       1.42706311       0.82391527      16.84415324 
