46
Lattice="8.562378640804901 0.0 0.0 4.281189320402451 7.415237419758317 0.0 0.0 0.0 23.321537179767724" Properties=species:S:1:pos:R:3 pbc="T T T"
Pd       8.56237864       1.64783054       7.00000000 
Pd       2.85412621       1.64783054       7.00000000 
Pd       5.70825243       1.64783054       7.00000000 
Pd       9.98944175       4.11957634       7.00000000 
Pd       4.28118932       4.11957634       7.00000000 
Pd       7.13531553       4.11957634       7.00000000 
Pd      11.41650485       6.59132215       7.00000000 
Pd       5.70825243       6.59132215       7.00000000 
Pd       8.56237864       6.59132215       7.00000000 
Pd       0.00000000       0.00000000       9.33038429 
Pd       2.85412621       0.00000000       9.33038429 
Pd       5.70825243       0.00000000       9.33038429 
Pd       1.42706311       2.47174581       9.33038429 
Pd       4.28118932       2.47174581       9.33038429 
Pd       7.13531553       2.47174581       9.33038429 
Pd       2.85412621       4.94349161       9.33038429 
Pd       5.70825243       4.94349161       9.33038429 
Pd       8.56237864       4.94349161       9.33038429 
Pd       1.42706311       0.82391527      11.66076859 
Pd       4.28118932       0.82391527      11.66076859 
Pd       7.13531553       0.82391527      11.66076859 
Pd       2.85412621       3.29566108      11.66076859 
Pd       5.70825243       3.29566108      11.66076859 
Pd       8.56237864       3.29566108      11.66076859 
Pd       4.28118932       5.76740688      11.66076859 
Pd       7.13531553       5.76740688      11.66076859 
Pd       9.98944175       5.76740688      11.66076859 
Pd       8.56553648       1.64600736      13.88178438 
Pd       2.85096837       1.64600736      13.88178438 
Pd       5.70825243       1.64473181      13.87112760 
Pd       9.98944175       4.10746357      13.90156154 
Pd       4.27850574       4.12112571      13.87112760 
Pd       7.13799911       4.12112571      13.87112760 
Pd      11.42699482       6.59737854      13.90156154 
Pd       5.70825243       6.59496851      13.88178438 
Pd       8.55188867       6.59737854      13.90156154 
Pd      12.79083275       7.38479073      16.20973141 
Pd       7.18805074       7.38479073      16.20973141 
Pd       5.70825243       0.00245654      16.11149205 
Pd       9.98944175       2.53263918      16.20973141 
Pd       4.30893271       2.48776346      16.09361789 
Pd       7.10757215       2.48776346      16.09361789 
Pd       2.85625364       4.94226334      16.11149205 
Pd       5.70825243       4.91145631      16.09361789 
Pd       8.56025121       4.94226334      16.11149205 
N       1.42706311       0.82391527      17.01550234 
