46
Lattice="8.562378640804901 0.0 0.0 4.281189320402451 7.415237419758317 0.0 0.0 0.0 23.321537179767724" Properties=species:S:1:pos:R:3 pbc="T T T"
Pd       8.56237864       1.64783054       7.00000000 
Pd       2.85412621       1.64783054       7.00000000 
Pd       5.70825243       1.64783054       7.00000000 
Pd       9.98944175       4.11957634       7.00000000 
Pd       4.28118932       4.11957634       7.00000000 
Pd       7.13531553       4.11957634       7.00000000 
Pd      11.41650485       6.59132215       7.00000000 
Pd       5.70825243       6.59132215       7.00000000 
Pd       8.56237864       6.59132215       7.00000000 
Pd       0.00000000       0.00000000       9.33038429 
Pd       2.85412621       0.00000000       9.33038429 
Pd       5.70825243       0.00000000       9.33038429 
Pd       1.42706311       2.47174581       9.33038429 
Pd       4.28118932       2.47174581       9.33038429 
Pd       7.13531553       2.47174581       9.33038429 
Pd       2.85412621       4.94349161       9.33038429 
Pd       5.70825243       4.94349161       9.33038429 
Pd       8.56237864       4.94349161       9.33038429 
Pd       1.42706311       0.82391527      11.66076859 
Pd       4.28118932       0.82391527      11.66076859 
Pd       7.13531553       0.82391527      11.66076859 
Pd       2.85412621       3.29566108      11.66076859 
Pd       5.70825243       3.29566108      11.66076859 
Pd       8.56237864       3.29566108      11.66076859 
Pd       4.28118932       5.76740688      11.66076859 
Pd       7.13531553       5.76740688      11.66076859 
Pd       9.98944175       5.76740688      11.66076859 
Pd       8.56459826       1.65271717      13.88616931 
Pd       2.85412621       1.64783054      13.89430676 
Pd       5.70603281       1.65271717      13.88616931 
Pd       9.98631961       4.11521078      13.88616931 
Pd       4.28431146       4.11521078      13.88616931 
Pd       7.13531553       4.11957634      13.87946605 
Pd      11.41650485       6.59132215      13.86326660 
Pd       5.71359419       6.59080108      13.88616931 
Pd       8.55703688       6.59080108      13.88616931 
Pd      12.81174456       7.39686417      16.09920203 
Pd       7.13531553       7.33638249      16.19317317 
Pd      10.02126515       7.39686417      16.09920203 
Pd       9.92115138       2.51117327      16.19317317 
Pd       4.34947969       2.51117327      16.19317317 
Pd       7.13531553       2.47748010      16.11250329 
Pd      11.41650485       4.98023811      16.09920203 
Pd       5.71321847       4.94062446      16.11250329 
Pd       8.55741259       4.94062446      16.11250329 
C       2.85412621       1.64783054      16.90340931 
