46
Lattice="8.35212609627333 0.0 0.0 4.176063048136665 7.233153374983659 0.0 0.0 0.0 23.09264320144588" Properties=species:S:1:pos:R:3 pbc="T T T"
Pt       8.35212610       1.60736742       7.00000000 
Pt       2.78404203       1.60736742       7.00000000 
Pt       5.56808406       1.60736742       7.00000000 
Pt       9.74414711       4.01841854       7.00000000 
Pt       4.17606305       4.01841854       7.00000000 
Pt       6.96010508       4.01841854       7.00000000 
Pt      11.13616813       6.42946967       7.00000000 
Pt       5.56808406       6.42946967       7.00000000 
Pt       8.35212610       6.42946967       7.00000000 
Pt       0.00000000       0.00000000       9.27316080 
Pt       2.78404203       0.00000000       9.27316080 
Pt       5.56808406       0.00000000       9.27316080 
Pt       1.39202102       2.41105112       9.27316080 
Pt       4.17606305       2.41105112       9.27316080 
Pt       6.96010508       2.41105112       9.27316080 
Pt       2.78404203       4.82210225       9.27316080 
Pt       5.56808406       4.82210225       9.27316080 
Pt       8.35212610       4.82210225       9.27316080 
Pt       1.39202102       0.80368371      11.54632160 
Pt       4.17606305       0.80368371      11.54632160 
Pt       6.96010508       0.80368371      11.54632160 
Pt       2.78404203       3.21473483      11.54632160 
Pt       5.56808406       3.21473483      11.54632160 
Pt       8.35212610       3.21473483      11.54632160 
Pt       4.17606305       5.62578596      11.54632160 
Pt       6.96010508       5.62578596      11.54632160 
Pt       9.74414711       5.62578596      11.54632160 
Pt       0.00000000       0.00000000      16.53127330 
Pt       6.96891046       7.23300092      16.41045077 
Pt       9.73534174       7.23300092      16.41045077 
Pt       9.74841777       2.41875303      16.41045077 
Pt       4.17606305       2.41105112      16.41273173 
Pt       6.95583443       2.41875303      16.41045077 
Pt      11.13163341       4.81455280      16.41045077 
Pt       5.57261878       4.81455280      16.41045077 
Pt       8.35212610       4.82210225      16.40741192 
Au       8.35212610       1.60358384      13.98819083 
Au       2.78282605       1.60666537      13.97700523 
Au       5.56930005       1.60666537      13.97700523 
Au       9.74363224       4.01871580      13.97043647 
Au       4.17606305       4.01982264      13.97700523 
Au       6.96061995       4.01871580      13.97043647 
Au      11.13944481       6.43136146      13.98819083 
Au       5.56480739       6.43136146      13.98819083 
Au       8.35212610       6.42887515      13.97043647 
H       0.00000000       0.00000000      18.07772073 
