46
Lattice="8.267761186209963 0.0 0.0 4.133880593104982 7.160091219680793 0.0 0.0 0.0 23.000798320623197" Properties=species:S:1:pos:R:3 pbc="T T T"
Pt       8.26776119       1.59113138       7.00000000 
Pt       2.75592040       1.59113138       7.00000000 
Pt       5.51184079       1.59113138       7.00000000 
Pt       9.64572138       3.97782846       7.00000000 
Pt       4.13388059       3.97782846       7.00000000 
Pt       6.88980099       3.97782846       7.00000000 
Pt      11.02368158       6.36452553       7.00000000 
Pt       5.51184079       6.36452553       7.00000000 
Pt       8.26776119       6.36452553       7.00000000 
Pt       0.00000000       0.00000000       9.25019958 
Pt       2.75592040       0.00000000       9.25019958 
Pt       5.51184079       0.00000000       9.25019958 
Pt       1.37796020       2.38669707       9.25019958 
Pt       4.13388059       2.38669707       9.25019958 
Pt       6.88980099       2.38669707       9.25019958 
Pt       2.75592040       4.77339415       9.25019958 
Pt       5.51184079       4.77339415       9.25019958 
Pt       8.26776119       4.77339415       9.25019958 
Pt       1.37796020       0.79556569      11.50039916 
Pt       4.13388059       0.79556569      11.50039916 
Pt       6.88980099       0.79556569      11.50039916 
Pt       2.75592040       3.18226276      11.50039916 
Pt       5.51184079       3.18226276      11.50039916 
Pt       8.26776119       3.18226276      11.50039916 
Pt       4.13388059       5.56895984      11.50039916 
Pt       6.88980099       5.56895984      11.50039916 
Pt       9.64572138       5.56895984      11.50039916 
Pt      12.34621993       7.12809340      16.54031328 
Pt       6.94522283       7.12809340      16.54031328 
Pt       5.51184079       0.00477855      16.45852858 
Pt       9.64572138       2.45069271      16.54031328 
Pt       4.17151914       2.40842770      16.40446695 
Pt       6.85216245       2.40842770      16.40446695 
Pt       2.76005874       4.77100487      16.45852858 
Pt       5.51184079       4.72993290      16.40446695 
Pt       8.26362284       4.77100487      16.45852858 
Au       8.27034961       1.58963695      13.97274226 
Au       2.75333197       1.58963695      13.97274226 
Au       5.51184079       1.58558007      13.94328214 
Au       9.64572138       3.97614473      13.99273404 
Au       4.12907302       3.98060411      13.94328214 
Au       6.89460856       3.98060411      13.94328214 
Au      11.02513973       6.36536739      13.99273404 
Au       5.51184079       6.36751439      13.97274226 
Au       8.26630304       6.36536739      13.99273404 
N       1.37796020       0.79556569      17.57124911 
