46
Lattice="8.267761186209963 0.0 0.0 4.133880593104982 7.160091219680793 0.0 0.0 0.0 23.000798320623197" Properties=species:S:1:pos:R:3 pbc="T T T"
Pt       8.26776119       1.59113138       7.00000000 
Pt       2.75592040       1.59113138       7.00000000 
Pt       5.51184079       1.59113138       7.00000000 
Pt       9.64572138       3.97782846       7.00000000 
Pt       4.13388059       3.97782846       7.00000000 
Pt       6.88980099       3.97782846       7.00000000 
Pt      11.02368158       6.36452553       7.00000000 
Pt       5.51184079       6.36452553       7.00000000 
Pt       8.26776119       6.36452553       7.00000000 
Pt       0.00000000       0.00000000       9.25019958 
Pt       2.75592040       0.00000000       9.25019958 
Pt       5.51184079       0.00000000       9.25019958 
Pt       1.37796020       2.38669707       9.25019958 
Pt       4.13388059       2.38669707       9.25019958 
Pt       6.88980099       2.38669707       9.25019958 
Pt       2.75592040       4.77339415       9.25019958 
Pt       5.51184079       4.77339415       9.25019958 
Pt       8.26776119       4.77339415       9.25019958 
Pt       1.37796020       0.79556569      11.50039916 
Pt       4.13388059       0.79556569      11.50039916 
Pt       6.88980099       0.79556569      11.50039916 
Pt       2.75592040       3.18226276      11.50039916 
Pt       5.51184079       3.18226276      11.50039916 
Pt       8.26776119       3.18226276      11.50039916 
Pt       4.13388059       5.56895984      11.50039916 
Pt       6.88980099       5.56895984      11.50039916 
Pt       9.64572138       5.56895984      11.50039916 
Pt       0.00000000       0.00000000      16.54586670 
Pt       2.76516067       0.00020992      16.43232770 
Pt       5.50260052       0.00020992      16.43232770 
Pt       1.38276213       2.39459442      16.43232770 
Pt       4.13388059       2.38669707      16.43303390 
Pt       6.88499906       2.39459442      16.43232770 
Pt       2.75148205       4.76528688      16.43232770 
Pt       5.51627913       4.76528688      16.43232770 
Pt       8.26776119       4.77339415      16.42987337 
Au       8.26776119       1.58932408      13.97600556 
Au       2.75462966       1.59038617      13.96543345 
Au       5.51313153       1.59038617      13.96543345 
Au       9.64525735       3.97809636      13.95944450 
Au       4.13388059       3.97931887      13.96543345 
Au       6.89026502       3.97809636      13.95944450 
Au      11.02524675       6.36542918      13.97600556 
Au       5.51027562       6.36542918      13.97600556 
Au       8.26776119       6.36398971      13.95944450 
H       0.00000000       0.00000000      18.08947883 
