46
Lattice="8.141275339404878 0.0 0.0 4.070637669702439 7.0505512631284 0.0 0.0 0.0 22.863097972020395" Properties=species:S:1:pos:R:3 pbc="T T T"
Ir       8.14127534       1.56678917       7.00000000 
Ir       2.71375845       1.56678917       7.00000000 
Ir       5.42751689       1.56678917       7.00000000 
Ir       9.49815456       3.91697292       7.00000000 
Ir       4.07063767       3.91697292       7.00000000 
Ir       6.78439612       3.91697292       7.00000000 
Ir      10.85503379       6.26715668       7.00000000 
Ir       5.42751689       6.26715668       7.00000000 
Ir       8.14127534       6.26715668       7.00000000 
Ir       0.00000000       0.00000000       9.21577449 
Ir       2.71375845       0.00000000       9.21577449 
Ir       5.42751689       0.00000000       9.21577449 
Ir       1.35687922       2.35018375       9.21577449 
Ir       4.07063767       2.35018375       9.21577449 
Ir       6.78439612       2.35018375       9.21577449 
Ir       2.71375845       4.70036751       9.21577449 
Ir       5.42751689       4.70036751       9.21577449 
Ir       8.14127534       4.70036751       9.21577449 
Ir       1.35687922       0.78339458      11.43154899 
Ir       4.07063767       0.78339458      11.43154899 
Ir       6.78439612       0.78339458      11.43154899 
Ir       2.71375845       3.13357834      11.43154899 
Ir       5.42751689       3.13357834      11.43154899 
Ir       8.14127534       3.13357834      11.43154899 
Ir       4.07063767       5.48376209      11.43154899 
Ir       6.78439612       5.48376209      11.43154899 
Ir       9.49815456       5.48376209      11.43154899 
Ir      12.17566076       7.02962102      15.66360199 
Ir       6.78439612       6.93158087      15.81500821 
Ir       9.53440681       7.02962102      15.66360199 
Ir       9.39512318       2.40966895      15.81500821 
Ir       4.17366905       2.40966895      15.81500821 
Ir       6.78439612       2.31868930      15.69562126 
Ir      10.85503379       4.74222800      15.66360199 
Ir       5.40024190       4.71611473      15.69562126 
Ir       8.16855033       4.71611473      15.69562126 
Cu       8.15438210       1.57114210      13.58765103 
Cu       2.71375845       1.56678917      13.66501653 
Cu       5.41441014       1.57114210      13.58765103 
Cu       9.50093819       3.90344567      13.58765103 
Cu       4.06785404       3.90344567      13.58765103 
Cu       6.78439612       3.91697292      13.59967258 
Cu      10.85503379       6.26715668      13.55216256 
Cu       5.43784002       6.27633100      13.58765103 
Cu       8.13095221       6.27633100      13.58765103 
C       2.71375845       1.56678917      16.73662679 
