46
Lattice="8.072811846636833 0.0 0.0 4.036405923318417 6.991260139159463 0.0 0.0 0.0 22.78856436166909" Properties=species:S:1:pos:R:3 pbc="T T T"
Rh       8.07281185       1.55361336       7.00000000 
Rh       2.69093728       1.55361336       7.00000000 
Rh       5.38187456       1.55361336       7.00000000 
Rh       9.41828049       3.88403341       7.00000000 
Rh       4.03640592       3.88403341       7.00000000 
Rh       6.72734321       3.88403341       7.00000000 
Rh      10.76374913       6.21445346       7.00000000 
Rh       5.38187456       6.21445346       7.00000000 
Rh       8.07281185       6.21445346       7.00000000 
Rh       0.00000000       0.00000000       9.19714109 
Rh       2.69093728       0.00000000       9.19714109 
Rh       5.38187456       0.00000000       9.19714109 
Rh       1.34546864       2.33042005       9.19714109 
Rh       4.03640592       2.33042005       9.19714109 
Rh       6.72734321       2.33042005       9.19714109 
Rh       2.69093728       4.66084009       9.19714109 
Rh       5.38187456       4.66084009       9.19714109 
Rh       8.07281185       4.66084009       9.19714109 
Rh       1.34546864       0.77680668      11.39428218 
Rh       4.03640592       0.77680668      11.39428218 
Rh       6.72734321       0.77680668      11.39428218 
Rh       2.69093728       3.10722673      11.39428218 
Rh       5.38187456       3.10722673      11.39428218 
Rh       8.07281185       3.10722673      11.39428218 
Rh       4.03640592       5.43764677      11.39428218 
Rh       6.72734321       5.43764677      11.39428218 
Rh       9.41828049       5.43764677      11.39428218 
Rh      12.07864688       6.97361003      15.97980506 
Rh       6.75791410       6.97361003      15.97980506 
Rh       5.38187456       0.00351130      15.94500578 
Rh       9.41828049       2.36572027      15.97980506 
Rh       4.04449430       2.33508987      15.95138649 
Rh       6.71925483       2.33508987      15.95138649 
Rh       2.69397816       4.65908444      15.94500578 
Rh       5.38187456       4.65150044      15.95138649 
Rh       8.06977097       4.65908444      15.94500578 
Pd       8.07460240       1.55257959      13.69924247 
Pd       2.68914673       1.55257959      13.69924247 
Pd       5.38187456       1.55424219      13.68594394 
Pd       9.41828049       3.88393958      13.67940387 
Pd       4.03695050       3.88371900      13.68594394 
Pd       6.72679862       3.88371900      13.68594394 
Pd      10.76383039       6.21450037      13.67940387 
Pd       5.38187456       6.21652101      13.69924247 
Pd       8.07273058       6.21450037      13.67940387 
H       1.34546864       0.77680668      16.91942649 
