46
Lattice="8.154355400643267 0.0 0.0 4.077177700321633 7.061878928443901 0.0 0.0 0.0 22.877337739059687" Properties=species:S:1:pos:R:3 pbc="T T T"
Rh       8.15435540       1.56930643       7.00000000 
Rh       2.71811847       1.56930643       7.00000000 
Rh       5.43623693       1.56930643       7.00000000 
Rh       9.51341463       3.92326607       7.00000000 
Rh       4.07717770       3.92326607       7.00000000 
Rh       6.79529617       3.92326607       7.00000000 
Rh      10.87247387       6.27722571       7.00000000 
Rh       5.43623693       6.27722571       7.00000000 
Rh       8.15435540       6.27722571       7.00000000 
Rh       0.00000000       0.00000000       9.21933443 
Rh       2.71811847       0.00000000       9.21933443 
Rh       5.43623693       0.00000000       9.21933443 
Rh       1.35905923       2.35395964       9.21933443 
Rh       4.07717770       2.35395964       9.21933443 
Rh       6.79529617       2.35395964       9.21933443 
Rh       2.71811847       4.70791929       9.21933443 
Rh       5.43623693       4.70791929       9.21933443 
Rh       8.15435540       4.70791929       9.21933443 
Rh       1.35905923       0.78465321      11.43866887 
Rh       4.07717770       0.78465321      11.43866887 
Rh       6.79529617       0.78465321      11.43866887 
Rh       2.71811847       3.13861286      11.43866887 
Rh       5.43623693       3.13861286      11.43866887 
Rh       8.15435540       3.13861286      11.43866887 
Rh       4.07717770       5.49257250      11.43866887 
Rh       6.79529617       5.49257250      11.43866887 
Rh       9.51341463       5.49257250      11.43866887 
Rh      12.19114637       7.03856164      15.50910652 
Rh       6.79529617       6.96743539      15.58783592 
Rh       9.55380136       7.03856164      15.50910652 
Rh       9.43162413       2.40118141      15.58783592 
Rh       4.15896820       2.40118141      15.58783592 
Rh       6.79529617       2.33701000      15.54876980 
Rh      10.87247387       4.75455386      15.50910652 
Rh       5.42155811       4.71639411      15.54876980 
Rh       8.16903422       4.71639411      15.54876980 
Ni       8.15083871       1.56438224      13.50902149 
Ni       2.71811847       1.56930643      13.52544340 
Ni       5.43975362       1.56438224      13.50902149 
Ni       9.51592077       3.92877371      13.50902149 
Ni       4.07467157       3.92877371      13.50902149 
Ni       6.79529617       3.92326607      13.52915630 
Ni      10.87247387       6.27722571      13.49072186 
Ni       5.43021412       6.27664227      13.50902149 
Ni       8.16037822       6.27664227      13.50902149 
C       2.71811847       1.56930643      16.47019303 
