46
Lattice="8.35212609627333 0.0 0.0 4.176063048136665 7.233153374983659 0.0 0.0 0.0 23.09264320144588" Properties=species:S:1:pos:R:3 pbc="T T T"
Pt       8.35212610       1.60736742       7.00000000 
Pt       2.78404203       1.60736742       7.00000000 
Pt       5.56808406       1.60736742       7.00000000 
Pt       9.74414711       4.01841854       7.00000000 
Pt       4.17606305       4.01841854       7.00000000 
Pt       6.96010508       4.01841854       7.00000000 
Pt      11.13616813       6.42946967       7.00000000 
Pt       5.56808406       6.42946967       7.00000000 
Pt       8.35212610       6.42946967       7.00000000 
Pt       0.00000000       0.00000000       9.27316080 
Pt       2.78404203       0.00000000       9.27316080 
Pt       5.56808406       0.00000000       9.27316080 
Pt       1.39202102       2.41105112       9.27316080 
Pt       4.17606305       2.41105112       9.27316080 
Pt       6.96010508       2.41105112       9.27316080 
Pt       2.78404203       4.82210225       9.27316080 
Pt       5.56808406       4.82210225       9.27316080 
Pt       8.35212610       4.82210225       9.27316080 
Pt       1.39202102       0.80368371      11.54632160 
Pt       4.17606305       0.80368371      11.54632160 
Pt       6.96010508       0.80368371      11.54632160 
Pt       2.78404203       3.21473483      11.54632160 
Pt       5.56808406       3.21473483      11.54632160 
Pt       8.35212610       3.21473483      11.54632160 
Pt       4.17606305       5.62578596      11.54632160 
Pt       6.96010508       5.62578596      11.54632160 
Pt       9.74414711       5.62578596      11.54632160 
Pt       0.00000000       0.00000000      16.02635948 
Pt       6.96365290       7.23111782      15.93633141 
Pt       9.74059929       7.23111782      15.93633141 
Pt       9.74415818       2.41514141      15.93633141 
Pt       4.17606305       2.41105112      15.93846298 
Pt       6.96009401       2.41514141      15.93633141 
Pt      11.13263138       4.82004752      15.93633141 
Pt       5.57162082       4.82004752      15.93633141 
Pt       8.35212610       4.82210225      15.94392275 
Os       8.35212610       1.58014312      13.71374954 
Os       2.77772860       1.60372236      13.71129534 
Os       5.57439749       1.60372236      13.71129534 
Os       9.74781057       4.01630344      13.72294246 
Os       4.17606305       4.02570866      13.71129534 
Os       6.95644162       4.01630344      13.72294246 
Os      11.15974506       6.44308181      13.71374954 
Os       5.54450713       6.44308181      13.71374954 
Os       8.35212610       6.43369986      13.72294246 
H       0.00000000       0.00000000      17.61611336 
