46
Lattice="8.226599086263533 0.0 0.0 4.113299543131767 7.12444379545407 0.0 0.0 0.0 22.955986702129774" Properties=species:S:1:pos:R:3 pbc="T T T"
Pd       8.22659909       1.58320973       7.00000000 
Pd       2.74219970       1.58320973       7.00000000 
Pd       5.48439939       1.58320973       7.00000000 
Pd       9.59769893       3.95802433       7.00000000 
Pd       4.11329954       3.95802433       7.00000000 
Pd       6.85549924       3.95802433       7.00000000 
Pd      10.96879878       6.33283893       7.00000000 
Pd       5.48439939       6.33283893       7.00000000 
Pd       8.22659909       6.33283893       7.00000000 
Pd       0.00000000       0.00000000       9.23899668 
Pd       2.74219970       0.00000000       9.23899668 
Pd       5.48439939       0.00000000       9.23899668 
Pd       1.37109985       2.37481460       9.23899668 
Pd       4.11329954       2.37481460       9.23899668 
Pd       6.85549924       2.37481460       9.23899668 
Pd       2.74219970       4.74962920       9.23899668 
Pd       5.48439939       4.74962920       9.23899668 
Pd       8.22659909       4.74962920       9.23899668 
Pd       1.37109985       0.79160487      11.47799335 
Pd       4.11329954       0.79160487      11.47799335 
Pd       6.85549924       0.79160487      11.47799335 
Pd       2.74219970       3.16641946      11.47799335 
Pd       5.48439939       3.16641946      11.47799335 
Pd       8.22659909       3.16641946      11.47799335 
Pd       4.11329954       5.54123406      11.47799335 
Pd       6.85549924       5.54123406      11.47799335 
Pd       9.59769893       5.54123406      11.47799335 
Pd      12.32045746       7.11321943      15.66464463 
Pd       6.87494040       7.11321943      15.66464463 
Pd       9.59769893       7.12268270      15.60275716 
Pd       9.59769893       2.39726332      15.66464463 
Pd       4.12168991       2.37965878      15.62182880 
Pd       6.84710887       2.37965878      15.62182880 
Pd      10.96727363       4.75050974      15.60275716 
Pd       5.48439939       4.73994083      15.62182880 
Pd       8.22812424       4.75050974      15.60275716 
Co       8.22972562       1.58140463      13.56087487 
Co       2.73907316       1.58140463      13.56087487 
Co       5.48439939       1.59010600      13.54797674 
Co       9.59769893       3.95449525      13.54402175 
Co       4.11927189       3.95457620      13.54797674 
Co       6.84952690       3.95457620      13.54797674 
Co      10.97185505       6.33460347      13.54402175 
Co       5.48439939       6.33644914      13.56087487 
Co       8.22354282       6.33460347      13.54402175 
H       1.37109985       0.79160487      16.50991986 
