46
Lattice="8.072811846636833 0.0 0.0 4.036405923318417 6.991260139159463 0.0 0.0 0.0 22.78856436166909" Properties=species:S:1:pos:R:3 pbc="T T T"
Rh       8.07281185       1.55361336       7.00000000 
Rh       2.69093728       1.55361336       7.00000000 
Rh       5.38187456       1.55361336       7.00000000 
Rh       9.41828049       3.88403341       7.00000000 
Rh       4.03640592       3.88403341       7.00000000 
Rh       6.72734321       3.88403341       7.00000000 
Rh      10.76374913       6.21445346       7.00000000 
Rh       5.38187456       6.21445346       7.00000000 
Rh       8.07281185       6.21445346       7.00000000 
Rh       0.00000000       0.00000000       9.19714109 
Rh       2.69093728       0.00000000       9.19714109 
Rh       5.38187456       0.00000000       9.19714109 
Rh       1.34546864       2.33042005       9.19714109 
Rh       4.03640592       2.33042005       9.19714109 
Rh       6.72734321       2.33042005       9.19714109 
Rh       2.69093728       4.66084009       9.19714109 
Rh       5.38187456       4.66084009       9.19714109 
Rh       8.07281185       4.66084009       9.19714109 
Rh       1.34546864       0.77680668      11.39428218 
Rh       4.03640592       0.77680668      11.39428218 
Rh       6.72734321       0.77680668      11.39428218 
Rh       2.69093728       3.10722673      11.39428218 
Rh       5.38187456       3.10722673      11.39428218 
Rh       8.07281185       3.10722673      11.39428218 
Rh       4.03640592       5.43764677      11.39428218 
Rh       6.72734321       5.43764677      11.39428218 
Rh       9.41828049       5.43764677      11.39428218 
Rh      12.05502775       6.95997351      16.34772244 
Rh       6.78153323       6.95997351      16.34772244 
Rh       5.38187456       0.01481988      16.21324675 
Rh       9.41828049       2.39299330      16.34772244 
Rh       4.07913632       2.35509045      16.19746353 
Rh       6.68461281       2.35509045      16.19746353 
Rh       2.70377167       4.65343015      16.21324675 
Rh       5.38187456       4.61149928      16.19746353 
Rh       8.05997746       4.65343015      16.21324675 
Ag       8.07506043       1.55231514      13.87477318 
Ag       2.68868870       1.55231514      13.87477318 
Ag       5.38187456       1.55043159      13.80596250 
Ag       9.41828049       3.88206265      13.84161078 
Ag       4.03365042       3.88562430      13.80596250 
Ag       6.73009871       3.88562430      13.80596250 
Ag      10.76545586       6.21543884      13.84161078 
Ag       5.38187456       6.21704990      13.87477318 
Ag       8.07110511       6.21543884      13.84161078 
O       1.34546864       0.77680668      17.46030392 
