46
Lattice="8.072811846636833 0.0 0.0 4.036405923318417 6.991260139159463 0.0 0.0 0.0 22.78856436166909" Properties=species:S:1:pos:R:3 pbc="T T T"
Rh       8.07281185       1.55361336       7.00000000 
Rh       2.69093728       1.55361336       7.00000000 
Rh       5.38187456       1.55361336       7.00000000 
Rh       9.41828049       3.88403341       7.00000000 
Rh       4.03640592       3.88403341       7.00000000 
Rh       6.72734321       3.88403341       7.00000000 
Rh      10.76374913       6.21445346       7.00000000 
Rh       5.38187456       6.21445346       7.00000000 
Rh       8.07281185       6.21445346       7.00000000 
Rh       0.00000000       0.00000000       9.19714109 
Rh       2.69093728       0.00000000       9.19714109 
Rh       5.38187456       0.00000000       9.19714109 
Rh       1.34546864       2.33042005       9.19714109 
Rh       4.03640592       2.33042005       9.19714109 
Rh       6.72734321       2.33042005       9.19714109 
Rh       2.69093728       4.66084009       9.19714109 
Rh       5.38187456       4.66084009       9.19714109 
Rh       8.07281185       4.66084009       9.19714109 
Rh       1.34546864       0.77680668      11.39428218 
Rh       4.03640592       0.77680668      11.39428218 
Rh       6.72734321       0.77680668      11.39428218 
Rh       2.69093728       3.10722673      11.39428218 
Rh       5.38187456       3.10722673      11.39428218 
Rh       8.07281185       3.10722673      11.39428218 
Rh       4.03640592       5.43764677      11.39428218 
Rh       6.72734321       5.43764677      11.39428218 
Rh       9.41828049       5.43764677      11.39428218 
Rh      12.07220131       6.96988868      16.17984090 
Rh       6.72734321       6.87820688      16.32940970 
Rh       9.45529695       6.96988868      16.17984090 
Rh       9.32037350       2.38694667      16.32940970 
Rh       4.13431291       2.38694667      16.32940970 
Rh       6.72734321       2.29569783      16.24774493 
Rh      10.76374913       4.70358302      16.17984090 
Rh       5.35180424       4.67820120      16.24774493 
Rh       8.10288217       4.67820120      16.24774493 
Ag       8.07460749       1.55610889      13.82555118 
Ag       2.69093728       1.55361336      13.93475404 
Ag       5.38007892       1.55610889      13.82555118 
Ag       9.41701712       3.88123057      13.82555118 
Ag       4.03766929       3.88123057      13.82555118 
Ag       6.72734321       3.88403341      13.87848111 
Ag      10.76374913       6.21445346      13.78150435 
Ag       5.38493357       6.21476077      13.82555118 
Ag       8.06975284       6.21476077      13.82555118 
C       2.69093728       1.55361336      17.16878036 
