46
Lattice="8.394488863534217 0.0 0.0 4.197244431767109 7.269840607606193 0.0 0.0 0.0 23.138761940948747" Properties=species:S:1:pos:R:3 pbc="T T T"
Pd       8.39448886       1.61552014       7.00000000 
Pd       2.79816295       1.61552014       7.00000000 
Pd       5.59632591       1.61552014       7.00000000 
Pd       9.79357034       4.03880034       7.00000000 
Pd       4.19724443       4.03880034       7.00000000 
Pd       6.99540739       4.03880034       7.00000000 
Pd      11.19265182       6.46208054       7.00000000 
Pd       5.59632591       6.46208054       7.00000000 
Pd       8.39448886       6.46208054       7.00000000 
Pd       0.00000000       0.00000000       9.28469049 
Pd       2.79816295       0.00000000       9.28469049 
Pd       5.59632591       0.00000000       9.28469049 
Pd       1.39908148       2.42328020       9.28469049 
Pd       4.19724443       2.42328020       9.28469049 
Pd       6.99540739       2.42328020       9.28469049 
Pd       2.79816295       4.84656041       9.28469049 
Pd       5.59632591       4.84656041       9.28469049 
Pd       8.39448886       4.84656041       9.28469049 
Pd       1.39908148       0.80776007      11.56938097 
Pd       4.19724443       0.80776007      11.56938097 
Pd       6.99540739       0.80776007      11.56938097 
Pd       2.79816295       3.23104027      11.56938097 
Pd       5.59632591       3.23104027      11.56938097 
Pd       8.39448886       3.23104027      11.56938097 
Pd       4.19724443       5.65432047      11.56938097 
Pd       6.99540739       5.65432047      11.56938097 
Pd       9.79357034       5.65432047      11.56938097 
Pd      12.58024721       7.26320911      15.88270539 
Pd       6.99540739       7.22835268      15.99485624 
Pd       9.80505643       7.26320911      15.88270539 
Pd       9.75764074       2.44402417      15.99485624 
Pd       4.23317403       2.44402417      15.99485624 
Pd       6.99540739       2.42373700      15.88239658 
Pd      11.19265182       4.85982340      15.88270539 
Pd       5.59672151       4.84633201      15.88239658 
Pd       8.39409327       4.84633201      15.88239658 
Ru       8.42572810       1.62955988      13.72223143 
Ru       2.79816295       1.61552014      13.67037894 
Ru       5.56508668       1.62955988      13.72223143 
Ru       9.79703118       4.00472649      13.72223143 
Ru       4.19378360       4.00472649      13.72223143 
Ru       6.99540739       4.03880034      13.71288157 
Ru      11.19265182       6.46208054      13.73624669 
Ru       5.62410430       6.48211463      13.72223143 
Ru       8.36671047       6.48211463      13.72223143 
C       2.79816295       1.61552014      16.92652731 
