46
Lattice="8.154355400643267 0.0 0.0 4.077177700321633 7.061878928443901 0.0 0.0 0.0 22.877337739059687" Properties=species:S:1:pos:R:3 pbc="T T T"
Rh       8.15435540       1.56930643       7.00000000 
Rh       2.71811847       1.56930643       7.00000000 
Rh       5.43623693       1.56930643       7.00000000 
Rh       9.51341463       3.92326607       7.00000000 
Rh       4.07717770       3.92326607       7.00000000 
Rh       6.79529617       3.92326607       7.00000000 
Rh      10.87247387       6.27722571       7.00000000 
Rh       5.43623693       6.27722571       7.00000000 
Rh       8.15435540       6.27722571       7.00000000 
Rh       0.00000000       0.00000000       9.21933443 
Rh       2.71811847       0.00000000       9.21933443 
Rh       5.43623693       0.00000000       9.21933443 
Rh       1.35905923       2.35395964       9.21933443 
Rh       4.07717770       2.35395964       9.21933443 
Rh       6.79529617       2.35395964       9.21933443 
Rh       2.71811847       4.70791929       9.21933443 
Rh       5.43623693       4.70791929       9.21933443 
Rh       8.15435540       4.70791929       9.21933443 
Rh       1.35905923       0.78465321      11.43866887 
Rh       4.07717770       0.78465321      11.43866887 
Rh       6.79529617       0.78465321      11.43866887 
Rh       2.71811847       3.13861286      11.43866887 
Rh       5.43623693       3.13861286      11.43866887 
Rh       8.15435540       3.13861286      11.43866887 
Rh       4.07717770       5.49257250      11.43866887 
Rh       6.79529617       5.49257250      11.43866887 
Rh       9.51341463       5.49257250      11.43866887 
Rh      12.19339683       7.03986094      16.26859377 
Rh       6.83343243       7.03986094      16.26859377 
Rh       5.43623693       0.00456091      16.23234877 
Rh       9.51341463       2.39799561      16.26859377 
Rh       4.08370211       2.35772651      16.23527901 
Rh       6.78877175       2.35772651      16.23527901 
Rh       2.72206833       4.70563883      16.23234877 
Rh       5.43623693       4.70038554      16.23527901 
Rh       8.15040554       4.70563883      16.23234877 
Au       8.15655399       1.56803707      13.86985288 
Au       2.71591988       1.56803707      13.86985288 
Au       5.43623693       1.56910129      13.85110051 
Au       9.51341463       3.92329575      13.84853752 
Au       4.07700004       3.92336864      13.85110051 
Au       6.79547382       3.92336864      13.85110051 
Au      10.87244816       6.27721087      13.84853752 
Au       5.43623693       6.27976442      13.86985288 
Au       8.15438111       6.27721087      13.84853752 
H       1.35905923       0.78465321      17.16133692 
