46
Lattice="8.141275339404878 0.0 0.0 4.070637669702439 7.0505512631284 0.0 0.0 0.0 22.863097972020395" Properties=species:S:1:pos:R:3 pbc="T T T"
Ir       8.14127534       1.56678917       7.00000000 
Ir       2.71375845       1.56678917       7.00000000 
Ir       5.42751689       1.56678917       7.00000000 
Ir       9.49815456       3.91697292       7.00000000 
Ir       4.07063767       3.91697292       7.00000000 
Ir       6.78439612       3.91697292       7.00000000 
Ir      10.85503379       6.26715668       7.00000000 
Ir       5.42751689       6.26715668       7.00000000 
Ir       8.14127534       6.26715668       7.00000000 
Ir       0.00000000       0.00000000       9.21577449 
Ir       2.71375845       0.00000000       9.21577449 
Ir       5.42751689       0.00000000       9.21577449 
Ir       1.35687922       2.35018375       9.21577449 
Ir       4.07063767       2.35018375       9.21577449 
Ir       6.78439612       2.35018375       9.21577449 
Ir       2.71375845       4.70036751       9.21577449 
Ir       5.42751689       4.70036751       9.21577449 
Ir       8.14127534       4.70036751       9.21577449 
Ir       1.35687922       0.78339458      11.43154899 
Ir       4.07063767       0.78339458      11.43154899 
Ir       6.78439612       0.78339458      11.43154899 
Ir       2.71375845       3.13357834      11.43154899 
Ir       5.42751689       3.13357834      11.43154899 
Ir       8.14127534       3.13357834      11.43154899 
Ir       4.07063767       5.48376209      11.43154899 
Ir       6.78439612       5.48376209      11.43154899 
Ir       9.49815456       5.48376209      11.43154899 
Ir      12.15817176       7.01952374      15.94174047 
Ir       6.83813736       7.01952374      15.94174047 
Ir       5.42751689       0.00200338      15.83721056 
Ir       9.49815456       2.41223880      15.94174047 
Ir       4.10039366       2.36736338      15.84197857 
Ir       6.75464012       2.36736338      15.84197857 
Ir       2.71549342       4.69936582      15.83721056 
Ir       5.42751689       4.66600825      15.84197857 
Ir       8.13954037       4.69936582      15.83721056 
Rh       8.14676146       1.56362176      13.65961616 
Rh       2.70827233       1.56362176      13.65961616 
Rh       5.42751689       1.56300410      13.66116067 
Rh       9.49815456       3.90280801      13.67270031 
Rh       4.06735970       3.91886546      13.66116067 
Rh       6.78767408       3.91886546      13.66116067 
Rh      10.86730096       6.27423914      13.67270031 
Rh       5.42751689       6.27349151      13.65961616 
Rh       8.12900816       6.27423914      13.67270031 
O       1.35687922       0.78339458      17.18182438 
