46
Lattice="8.478433752169561 0.0 0.0 4.239216876084781 7.342539013682256 0.0 0.0 0.0 23.230149560358235" Properties=species:S:1:pos:R:3 pbc="T T T"
Pd       8.47843375       1.63167534       7.00000000 
Pd       2.82614458       1.63167534       7.00000000 
Pd       5.65228917       1.63167534       7.00000000 
Pd       9.89150604       4.07918834       7.00000000 
Pd       4.23921688       4.07918834       7.00000000 
Pd       7.06536146       4.07918834       7.00000000 
Pd      11.30457834       6.52670135       7.00000000 
Pd       5.65228917       6.52670135       7.00000000 
Pd       8.47843375       6.52670135       7.00000000 
Pd       0.00000000       0.00000000       9.30753739 
Pd       2.82614458       0.00000000       9.30753739 
Pd       5.65228917       0.00000000       9.30753739 
Pd       1.41307229       2.44751300       9.30753739 
Pd       4.23921688       2.44751300       9.30753739 
Pd       7.06536146       2.44751300       9.30753739 
Pd       2.82614458       4.89502601       9.30753739 
Pd       5.65228917       4.89502601       9.30753739 
Pd       8.47843375       4.89502601       9.30753739 
Pd       1.41307229       0.81583767      11.61507478 
Pd       4.23921688       0.81583767      11.61507478 
Pd       7.06536146       0.81583767      11.61507478 
Pd       2.82614458       3.26335067      11.61507478 
Pd       5.65228917       3.26335067      11.61507478 
Pd       8.47843375       3.26335067      11.61507478 
Pd       4.23921688       5.71086368      11.61507478 
Pd       7.06536146       5.71086368      11.61507478 
Pd       9.89150604       5.71086368      11.61507478 
Pd      12.70367518       7.33447029      16.16774036 
Pd       7.07933691       7.33447029      16.16774036 
Pd       5.65228917       0.00037734      16.13004015 
Pd       9.89150604       2.46365046      16.16774036 
Pd       4.24758238       2.45234283      16.12966739 
Pd       7.05699596       2.45234283      16.12966739 
Pd       2.82647137       4.89483734      16.13004015 
Pd       5.65228917       4.88536636      16.12966739 
Pd       8.47810697       4.89483734      16.13004015 
Pt       8.48007435       1.63072814      13.87100655 
Pt       2.82450398       1.63072814      13.87100655 
Pt       5.65228917       1.63195238      13.86532695 
Pt       9.89150604       4.07673694      13.87388837 
Pt       4.23945680       4.07904982      13.86532695 
Pt       7.06512153       4.07904982      13.86532695 
Pt      11.30670131       6.52792705      13.87388837 
Pt       5.65228917       6.52859575      13.87100655 
Pt       8.47631078       6.52792705      13.87388837 
H       1.41307229       0.81583767      16.94507281 
