46
Lattice="8.305745548281743 0.0 0.0 4.152872774140872 7.1929866421815 0.0 0.0 0.0 23.042150456303634" Properties=species:S:1:pos:R:3 pbc="T T T"
Ir       8.30574555       1.59844148       7.00000000 
Ir       2.76858185       1.59844148       7.00000000 
Ir       5.53716370       1.59844148       7.00000000 
Ir       9.69003647       3.99610369       7.00000000 
Ir       4.15287277       3.99610369       7.00000000 
Ir       6.92145462       3.99610369       7.00000000 
Ir      11.07432740       6.39376590       7.00000000 
Ir       5.53716370       6.39376590       7.00000000 
Ir       8.30574555       6.39376590       7.00000000 
Ir       0.00000000       0.00000000       9.26053761 
Ir       2.76858185       0.00000000       9.26053761 
Ir       5.53716370       0.00000000       9.26053761 
Ir       1.38429092       2.39766221       9.26053761 
Ir       4.15287277       2.39766221       9.26053761 
Ir       6.92145462       2.39766221       9.26053761 
Ir       2.76858185       4.79532443       9.26053761 
Ir       5.53716370       4.79532443       9.26053761 
Ir       8.30574555       4.79532443       9.26053761 
Ir       1.38429092       0.79922074      11.52107523 
Ir       4.15287277       0.79922074      11.52107523 
Ir       6.92145462       0.79922074      11.52107523 
Ir       2.76858185       3.19688295      11.52107523 
Ir       5.53716370       3.19688295      11.52107523 
Ir       8.30574555       3.19688295      11.52107523 
Ir       4.15287277       5.59454517      11.52107523 
Ir       6.92145462       5.59454517      11.52107523 
Ir       9.69003647       5.59454517      11.52107523 
Ir       0.00000000       0.00000000      16.52348914 
Ir       2.77387199       0.00167058      16.29511808 
Ir       5.53187356       0.00167058      16.29511808 
Ir       1.38838276       2.40140832      16.29511808 
Ir       4.15287277       2.39766221      16.27972636 
Ir       6.91736279       2.40140832      16.29511808 
Ir       2.76738355       4.78990775      16.29511808 
Ir       5.53836200       4.78990775      16.29511808 
Ir       8.30574555       4.79532443      16.29053538 
Ag       8.30574555       1.59349950      13.94455370 
Ag       2.76536827       1.59658612      13.91943047 
Ag       5.54037727       1.59658612      13.91943047 
Ag       9.69054041       3.99581274      13.92171233 
Ag       4.15287277       3.99981441      13.91943047 
Ag       6.92095069       3.99581274      13.92171233 
Ag      11.07860728       6.39623689      13.94455370 
Ag       5.53288382       6.39623689      13.94455370 
Ag       8.30574555       6.39434780      13.92171233 
H       0.00000000       0.00000000      18.09665285 
