46
Lattice="8.520855916400066 0.0 0.0 4.260427958200033 7.37927768558939 0.0 0.0 0.0 23.276332963091257" Properties=species:S:1:pos:R:3 pbc="T T T"
Pt       8.52085592       1.63983949       7.00000000 
Pt       2.84028531       1.63983949       7.00000000 
Pt       5.68057061       1.63983949       7.00000000 
Pt       9.94099857       4.09959871       7.00000000 
Pt       4.26042796       4.09959871       7.00000000 
Pt       7.10071326       4.09959871       7.00000000 
Pt      11.36114122       6.55935794       7.00000000 
Pt       5.68057061       6.55935794       7.00000000 
Pt       8.52085592       6.55935794       7.00000000 
Pt       0.00000000       0.00000000       9.31908324 
Pt       2.84028531       0.00000000       9.31908324 
Pt       5.68057061       0.00000000       9.31908324 
Pt       1.42014265       2.45975923       9.31908324 
Pt       4.26042796       2.45975923       9.31908324 
Pt       7.10071326       2.45975923       9.31908324 
Pt       2.84028531       4.91951846       9.31908324 
Pt       5.68057061       4.91951846       9.31908324 
Pt       8.52085592       4.91951846       9.31908324 
Pt       1.42014265       0.81991974      11.63816648 
Pt       4.26042796       0.81991974      11.63816648 
Pt       7.10071326       0.81991974      11.63816648 
Pt       2.84028531       3.27967897      11.63816648 
Pt       5.68057061       3.27967897      11.63816648 
Pt       8.52085592       3.27967897      11.63816648 
Pt       4.26042796       5.73943820      11.63816648 
Pt       7.10071326       5.73943820      11.63816648 
Pt       9.94099857       5.73943820      11.63816648 
Pt      12.60404479       7.27694865      16.48805556 
Pt       7.27795235       7.27694865      16.48805556 
Pt       5.68057061       0.02854299      16.36476306 
Pt       9.94099857       2.66441730      16.48805556 
Pt       4.31212126       2.48960437      16.37665290 
Pt       7.04901996       2.48960437      16.37665290 
Pt       2.86500426       4.90524696      16.36476306 
Pt       5.68057061       4.85982817      16.37665290 
Pt       8.49613696       4.90524696      16.36476306 
Ag       8.51991502       1.64038271      14.04564574 
Ag       2.84122620       1.64038271      14.04564574 
Ag       5.68057061       1.64005416      13.99372525 
Ag       9.94099857       4.10247397      13.99677294 
Ag       4.26061387       4.09949138      13.99372525 
Ag       7.10052735       4.09949138      13.99372525 
Ag      11.35865118       6.55792031      13.99677294 
Ag       5.68057061       6.55827149      14.04564574 
Ag       8.52334596       6.55792031      13.99677294 
C       1.42014265       0.81991974      16.87620359 
