46
Lattice="8.387980652720177 0.0 0.0 4.193990326360089 7.264204331708049 0.0 0.0 0.0 23.131676698445254" Properties=species:S:1:pos:R:3 pbc="T T T"
Ir       8.38798065       1.61426763       7.00000000 
Ir       2.79599355       1.61426763       7.00000000 
Ir       5.59198710       1.61426763       7.00000000 
Ir       9.78597743       4.03566907       7.00000000 
Ir       4.19399033       4.03566907       7.00000000 
Ir       6.98998388       4.03566907       7.00000000 
Ir      11.18397420       6.45707052       7.00000000 
Ir       5.59198710       6.45707052       7.00000000 
Ir       8.38798065       6.45707052       7.00000000 
Ir       0.00000000       0.00000000       9.28291917 
Ir       2.79599355       0.00000000       9.28291917 
Ir       5.59198710       0.00000000       9.28291917 
Ir       1.39799678       2.42140144       9.28291917 
Ir       4.19399033       2.42140144       9.28291917 
Ir       6.98998388       2.42140144       9.28291917 
Ir       2.79599355       4.84280289       9.28291917 
Ir       5.59198710       4.84280289       9.28291917 
Ir       8.38798065       4.84280289       9.28291917 
Ir       1.39799678       0.80713381      11.56583835 
Ir       4.19399033       0.80713381      11.56583835 
Ir       6.98998388       0.80713381      11.56583835 
Ir       2.79599355       3.22853526      11.56583835 
Ir       5.59198710       3.22853526      11.56583835 
Ir       8.38798065       3.22853526      11.56583835 
Ir       4.19399033       5.64993670      11.56583835 
Ir       6.98998388       5.64993670      11.56583835 
Ir       9.78597743       5.64993670      11.56583835 
Ir      12.43652122       7.18022887      15.65086486 
Ir       7.13543364       7.18022887      15.65086486 
Ir       5.59198710       0.02309269      15.54357787 
Ir       9.78597743       2.58935236      15.65086486 
Ir       4.24521502       2.45097604      15.55265245 
Ir       6.93875918       2.45097604      15.55265245 
Ir       2.81599241       4.83125654      15.54357787 
Ir       5.59198710       4.78365370      15.55265245 
Ir       8.36798180       4.83125654      15.54357787 
Ni       8.40427756       1.60485861      13.62368792 
Ni       2.77969664       1.60485861      13.62368792 
Ni       5.59198710       1.61132332      13.56855209 
Ni       9.78597743       4.02566304      13.57471478 
Ni       4.19144048       4.03714123      13.56855209 
Ni       6.99253373       4.03714123      13.56855209 
Ni      11.19263968       6.46207353      13.57471478 
Ni       5.59198710       6.47588857      13.62368792 
Ni       8.37931518       6.46207353      13.57471478 
O       1.39799678       0.80713381      16.63545423 
