46
Lattice="8.387980652720177 0.0 0.0 4.193990326360089 7.264204331708049 0.0 0.0 0.0 23.131676698445254" Properties=species:S:1:pos:R:3 pbc="T T T"
Ir       8.38798065       1.61426763       7.00000000 
Ir       2.79599355       1.61426763       7.00000000 
Ir       5.59198710       1.61426763       7.00000000 
Ir       9.78597743       4.03566907       7.00000000 
Ir       4.19399033       4.03566907       7.00000000 
Ir       6.98998388       4.03566907       7.00000000 
Ir      11.18397420       6.45707052       7.00000000 
Ir       5.59198710       6.45707052       7.00000000 
Ir       8.38798065       6.45707052       7.00000000 
Ir       0.00000000       0.00000000       9.28291917 
Ir       2.79599355       0.00000000       9.28291917 
Ir       5.59198710       0.00000000       9.28291917 
Ir       1.39799678       2.42140144       9.28291917 
Ir       4.19399033       2.42140144       9.28291917 
Ir       6.98998388       2.42140144       9.28291917 
Ir       2.79599355       4.84280289       9.28291917 
Ir       5.59198710       4.84280289       9.28291917 
Ir       8.38798065       4.84280289       9.28291917 
Ir       1.39799678       0.80713381      11.56583835 
Ir       4.19399033       0.80713381      11.56583835 
Ir       6.98998388       0.80713381      11.56583835 
Ir       2.79599355       3.22853526      11.56583835 
Ir       5.59198710       3.22853526      11.56583835 
Ir       8.38798065       3.22853526      11.56583835 
Ir       4.19399033       5.64993670      11.56583835 
Ir       6.98998388       5.64993670      11.56583835 
Ir       9.78597743       5.64993670      11.56583835 
Ir      12.52170506       7.22940979      15.55001142 
Ir       6.98998388       7.10392733      15.60707164 
Ir       9.84624335       7.22940979      15.55001142 
Ir       9.64717347       2.50153995      15.60707164 
Ir       4.33279428       2.50153995      15.60707164 
Ir       6.98998388       2.36696429      15.58806777 
Ir      11.18397420       4.91239198      15.55001142 
Ir       5.54484314       4.87002146      15.58806777 
Ir       8.43512461       4.87002146      15.58806777 
Ni       8.38470274       1.59746014      13.58307509 
Ni       2.79599355       1.61426763      13.60840981 
Ni       5.59526502       1.59746014      13.58307509 
Ni       9.79889418       4.04691157      13.58307509 
Ni       4.18107357       4.04691157      13.58307509 
Ni       6.98998388       4.03566907      13.61899460 
Ni      11.18397420       6.45707052      13.54926729 
Ni       5.57579243       6.46263550      13.58307509 
Ni       8.40417532       6.46263550      13.58307509 
C       2.79599355       1.61426763      16.37686291 
