46
Lattice="8.267761186209963 0.0 0.0 4.133880593104982 7.160091219680793 0.0 0.0 0.0 23.000798320623197" Properties=species:S:1:pos:R:3 pbc="T T T"
Pt       8.26776119       1.59113138       7.00000000 
Pt       2.75592040       1.59113138       7.00000000 
Pt       5.51184079       1.59113138       7.00000000 
Pt       9.64572138       3.97782846       7.00000000 
Pt       4.13388059       3.97782846       7.00000000 
Pt       6.88980099       3.97782846       7.00000000 
Pt      11.02368158       6.36452553       7.00000000 
Pt       5.51184079       6.36452553       7.00000000 
Pt       8.26776119       6.36452553       7.00000000 
Pt       0.00000000       0.00000000       9.25019958 
Pt       2.75592040       0.00000000       9.25019958 
Pt       5.51184079       0.00000000       9.25019958 
Pt       1.37796020       2.38669707       9.25019958 
Pt       4.13388059       2.38669707       9.25019958 
Pt       6.88980099       2.38669707       9.25019958 
Pt       2.75592040       4.77339415       9.25019958 
Pt       5.51184079       4.77339415       9.25019958 
Pt       8.26776119       4.77339415       9.25019958 
Pt       1.37796020       0.79556569      11.50039916 
Pt       4.13388059       0.79556569      11.50039916 
Pt       6.88980099       0.79556569      11.50039916 
Pt       2.75592040       3.18226276      11.50039916 
Pt       5.51184079       3.18226276      11.50039916 
Pt       8.26776119       3.18226276      11.50039916 
Pt       4.13388059       5.56895984      11.50039916 
Pt       6.88980099       5.56895984      11.50039916 
Pt       9.64572138       5.56895984      11.50039916 
Pt      12.37958208       7.14735505      16.08013938 
Pt       6.91186069       7.14735505      16.08013938 
Pt       9.64572138       7.15816514      15.93511749 
Pt       9.64572138       2.41216942      16.08013938 
Pt       4.15448037       2.39859036      15.94709165 
Pt       6.86920121       2.39859036      15.94709165 
Pt      11.02201355       4.77435719      15.93511749 
Pt       5.51184079       4.74960757      15.94709165 
Pt       8.26942922       4.77435719      15.93511749 
Re       8.28051412       1.58376847      13.68263506 
Re       2.74316746       1.58376847      13.68263506 
Re       5.51184079       1.58307008      13.71045131 
Re       9.64572138       3.96084520      13.69317960 
Re       4.12689930       3.98185911      13.71045131 
Re       6.89678228       3.98185911      13.71045131 
Re      11.03838952       6.37301716      13.69317960 
Re       5.51184079       6.37925135      13.68263506 
Re       8.25305325       6.37301716      13.69317960 
C       1.37796020       0.79556569      17.20111604 
