46
Lattice="8.562378640804901 0.0 0.0 4.281189320402451 7.415237419758317 0.0 0.0 0.0 23.321537179767724" Properties=species:S:1:pos:R:3 pbc="T T T"
Pd       8.56237864       1.64783054       7.00000000 
Pd       2.85412621       1.64783054       7.00000000 
Pd       5.70825243       1.64783054       7.00000000 
Pd       9.98944175       4.11957634       7.00000000 
Pd       4.28118932       4.11957634       7.00000000 
Pd       7.13531553       4.11957634       7.00000000 
Pd      11.41650485       6.59132215       7.00000000 
Pd       5.70825243       6.59132215       7.00000000 
Pd       8.56237864       6.59132215       7.00000000 
Pd       0.00000000       0.00000000       9.33038429 
Pd       2.85412621       0.00000000       9.33038429 
Pd       5.70825243       0.00000000       9.33038429 
Pd       1.42706311       2.47174581       9.33038429 
Pd       4.28118932       2.47174581       9.33038429 
Pd       7.13531553       2.47174581       9.33038429 
Pd       2.85412621       4.94349161       9.33038429 
Pd       5.70825243       4.94349161       9.33038429 
Pd       8.56237864       4.94349161       9.33038429 
Pd       1.42706311       0.82391527      11.66076859 
Pd       4.28118932       0.82391527      11.66076859 
Pd       7.13531553       0.82391527      11.66076859 
Pd       2.85412621       3.29566108      11.66076859 
Pd       5.70825243       3.29566108      11.66076859 
Pd       8.56237864       3.29566108      11.66076859 
Pd       4.28118932       5.76740688      11.66076859 
Pd       7.13531553       5.76740688      11.66076859 
Pd       9.98944175       5.76740688      11.66076859 
Pd      12.81702804       7.39991459      16.12897205 
Pd       7.13531553       7.36993412      16.22743544 
Pd      10.01598167       7.39991459      16.12897205 
Pd       9.95020794       2.49439745      16.22743544 
Pd       4.32042312       2.49439745      16.22743544 
Pd       7.13531553       2.47746032      16.14336176 
Pd      11.41650485       4.97413727      16.12897205 
Pd       5.71320134       4.94063436      16.14336176 
Pd       8.55742973       4.94063436      16.14336176 
Pt       8.56803084       1.65400823      13.90551903 
Pt       2.85412621       1.64783054      13.87722573 
Pt       5.70260022       1.65400823      13.90551903 
Pt       9.98691781       4.11159254      13.90551903 
Pt       4.28371326       4.11159254      13.90551903 
Pt       7.13531553       4.11957634      13.89555955 
Pt      11.41650485       6.59132215      13.87998763 
Pt       5.71642857       6.59312825      13.90551903 
Pt       8.55420250       6.59312825      13.90551903 
C       2.85412621       1.64783054      17.03920400 
