46
Lattice="8.436491006336698 0.0 0.0 4.218245503168349 7.306215530286524 0.0 0.0 0.0 23.184488082268565" Properties=species:S:1:pos:R:3 pbc="T T T"
Pt       8.43649101       1.62360345       7.00000000 
Pt       2.81216367       1.62360345       7.00000000 
Pt       5.62432734       1.62360345       7.00000000 
Pt       9.84257284       4.05900863       7.00000000 
Pt       4.21824550       4.05900863       7.00000000 
Pt       7.03040917       4.05900863       7.00000000 
Pt      11.24865468       6.49441380       7.00000000 
Pt       5.62432734       6.49441380       7.00000000 
Pt       8.43649101       6.49441380       7.00000000 
Pt       0.00000000       0.00000000       9.29612202 
Pt       2.81216367       0.00000000       9.29612202 
Pt       5.62432734       0.00000000       9.29612202 
Pt       1.40608183       2.43540518       9.29612202 
Pt       4.21824550       2.43540518       9.29612202 
Pt       7.03040917       2.43540518       9.29612202 
Pt       2.81216367       4.87081035       9.29612202 
Pt       5.62432734       4.87081035       9.29612202 
Pt       8.43649101       4.87081035       9.29612202 
Pt       1.40608183       0.81180173      11.59224404 
Pt       4.21824550       0.81180173      11.59224404 
Pt       7.03040917       0.81180173      11.59224404 
Pt       2.81216367       3.24720690      11.59224404 
Pt       5.62432734       3.24720690      11.59224404 
Pt       8.43649101       3.24720690      11.59224404 
Pt       4.21824550       5.68261208      11.59224404 
Pt       7.03040917       5.68261208      11.59224404 
Pt       9.84257284       5.68261208      11.59224404 
Pt      12.57004800       7.25732059      16.07753865 
Pt       7.11509769       7.25732059      16.07753865 
Pt       9.84257284       7.29661397      15.93157836 
Pt       9.84257284       2.53319505      16.07753865 
Pt       4.23219158       2.44345695      15.93663553 
Pt       7.01646310       2.44345695      15.93663553 
Pt      11.24033948       4.87561113      15.93157836 
Pt       5.62432734       4.85470682      15.93663553 
Pt       8.44480620       4.87561113      15.93157836 
Os       8.45265626       1.61427044      13.71948387 
Os       2.79599841       1.61427044      13.71948387 
Os       5.62432734       1.61373627      13.74675212 
Os       9.84257284       4.01532070      13.75382616 
Os       4.20970028       4.06394222      13.74675212 
Os       7.03895440       4.06394222      13.74675212 
Os      11.28648953       6.51625777      13.75382616 
Os       5.62432734       6.51307984      13.71948387 
Os       8.39865615       6.51625777      13.75382616 
N       1.40608183       0.81180173      17.00495187 
