46
Lattice="8.141275339404878 0.0 0.0 4.070637669702439 7.0505512631284 0.0 0.0 0.0 22.863097972020395" Properties=species:S:1:pos:R:3 pbc="T T T"
Ir       8.14127534       1.56678917       7.00000000 
Ir       2.71375845       1.56678917       7.00000000 
Ir       5.42751689       1.56678917       7.00000000 
Ir       9.49815456       3.91697292       7.00000000 
Ir       4.07063767       3.91697292       7.00000000 
Ir       6.78439612       3.91697292       7.00000000 
Ir      10.85503379       6.26715668       7.00000000 
Ir       5.42751689       6.26715668       7.00000000 
Ir       8.14127534       6.26715668       7.00000000 
Ir       0.00000000       0.00000000       9.21577449 
Ir       2.71375845       0.00000000       9.21577449 
Ir       5.42751689       0.00000000       9.21577449 
Ir       1.35687922       2.35018375       9.21577449 
Ir       4.07063767       2.35018375       9.21577449 
Ir       6.78439612       2.35018375       9.21577449 
Ir       2.71375845       4.70036751       9.21577449 
Ir       5.42751689       4.70036751       9.21577449 
Ir       8.14127534       4.70036751       9.21577449 
Ir       1.35687922       0.78339458      11.43154899 
Ir       4.07063767       0.78339458      11.43154899 
Ir       6.78439612       0.78339458      11.43154899 
Ir       2.71375845       3.13357834      11.43154899 
Ir       5.42751689       3.13357834      11.43154899 
Ir       8.14127534       3.13357834      11.43154899 
Ir       4.07063767       5.48376209      11.43154899 
Ir       6.78439612       5.48376209      11.43154899 
Ir       9.49815456       5.48376209      11.43154899 
Ir      12.16878170       7.02564939      16.46785541 
Ir       6.82752742       7.02564939      16.46785541 
Ir       5.42751689       0.00980702      16.31565791 
Ir       9.49815456       2.39998750      16.46785541 
Ir       4.10524533       2.37016449      16.26602528 
Ir       6.74978846       2.37016449      16.26602528 
Ir       2.72225158       4.69546400      16.31565791 
Ir       5.42751689       4.66040603      16.26602528 
Ir       8.13278221       4.69546400      16.31565791 
Au       8.14814989       1.56282015      13.91586501 
Au       2.70688390       1.56282015      13.91586501 
Au       5.42751689       1.56091092      13.85024475 
Au       9.49815456       3.91042322      13.90016123 
Au       4.06554695       3.91991205      13.85024475 
Au       6.78948683       3.91991205      13.85024475 
Au      10.86070599       6.27043153      13.90016123 
Au       5.42751689       6.27509473      13.91586501 
Au       8.13560313       6.27043153      13.90016123 
N       1.35687922       0.78339458      17.56504544 
