46
Lattice="8.141275339404878 0.0 0.0 4.070637669702439 7.0505512631284 0.0 0.0 0.0 22.863097972020395" Properties=species:S:1:pos:R:3 pbc="T T T"
Ir       8.14127534       1.56678917       7.00000000 
Ir       2.71375845       1.56678917       7.00000000 
Ir       5.42751689       1.56678917       7.00000000 
Ir       9.49815456       3.91697292       7.00000000 
Ir       4.07063767       3.91697292       7.00000000 
Ir       6.78439612       3.91697292       7.00000000 
Ir      10.85503379       6.26715668       7.00000000 
Ir       5.42751689       6.26715668       7.00000000 
Ir       8.14127534       6.26715668       7.00000000 
Ir       0.00000000       0.00000000       9.21577449 
Ir       2.71375845       0.00000000       9.21577449 
Ir       5.42751689       0.00000000       9.21577449 
Ir       1.35687922       2.35018375       9.21577449 
Ir       4.07063767       2.35018375       9.21577449 
Ir       6.78439612       2.35018375       9.21577449 
Ir       2.71375845       4.70036751       9.21577449 
Ir       5.42751689       4.70036751       9.21577449 
Ir       8.14127534       4.70036751       9.21577449 
Ir       1.35687922       0.78339458      11.43154899 
Ir       4.07063767       0.78339458      11.43154899 
Ir       6.78439612       0.78339458      11.43154899 
Ir       2.71375845       3.13357834      11.43154899 
Ir       5.42751689       3.13357834      11.43154899 
Ir       8.14127534       3.13357834      11.43154899 
Ir       4.07063767       5.48376209      11.43154899 
Ir       6.78439612       5.48376209      11.43154899 
Ir       9.49815456       5.48376209      11.43154899 
Ir       0.00000000       0.00000000      16.63900560 
Ir       2.71459310       0.00127809      16.30619859 
Ir       5.42668224       0.00127809      16.30619859 
Ir       1.35840341       2.35026754      16.30619859 
Ir       4.07063767       2.35018375      16.27959464 
Ir       6.78287193       2.35026754      16.30619859 
Ir       2.71444798       4.69900564      16.30619859 
Ir       5.42682736       4.69900564      16.30619859 
Ir       8.14127534       4.70036751      16.28842861 
Au       8.14127534       1.55894965      13.91407666 
Au       2.71018021       1.56472327      13.87265964 
Au       5.43109513       1.56472327      13.87265964 
Au       9.49861011       3.91670991      13.86609824 
Au       4.07063767       3.92110472      13.87265964 
Au       6.78394057       3.91670991      13.86609824 
Au      10.86182301       6.27107644      13.91407666 
Au       5.42072767       6.27107644      13.91407666 
Au       8.14127534       6.26768270      13.86609824 
H       0.00000000       0.00000000      18.20838062 
