46
Lattice="8.154355400643267 0.0 0.0 4.077177700321633 7.061878928443901 0.0 0.0 0.0 22.877337739059687" Properties=species:S:1:pos:R:3 pbc="T T T"
Rh       8.15435540       1.56930643       7.00000000 
Rh       2.71811847       1.56930643       7.00000000 
Rh       5.43623693       1.56930643       7.00000000 
Rh       9.51341463       3.92326607       7.00000000 
Rh       4.07717770       3.92326607       7.00000000 
Rh       6.79529617       3.92326607       7.00000000 
Rh      10.87247387       6.27722571       7.00000000 
Rh       5.43623693       6.27722571       7.00000000 
Rh       8.15435540       6.27722571       7.00000000 
Rh       0.00000000       0.00000000       9.21933443 
Rh       2.71811847       0.00000000       9.21933443 
Rh       5.43623693       0.00000000       9.21933443 
Rh       1.35905923       2.35395964       9.21933443 
Rh       4.07717770       2.35395964       9.21933443 
Rh       6.79529617       2.35395964       9.21933443 
Rh       2.71811847       4.70791929       9.21933443 
Rh       5.43623693       4.70791929       9.21933443 
Rh       8.15435540       4.70791929       9.21933443 
Rh       1.35905923       0.78465321      11.43866887 
Rh       4.07717770       0.78465321      11.43866887 
Rh       6.79529617       0.78465321      11.43866887 
Rh       2.71811847       3.13861286      11.43866887 
Rh       5.43623693       3.13861286      11.43866887 
Rh       8.15435540       3.13861286      11.43866887 
Rh       4.07717770       5.49257250      11.43866887 
Rh       6.79529617       5.49257250      11.43866887 
Rh       9.51341463       5.49257250      11.43866887 
Rh      12.19716786       7.04203815      15.82988518 
Rh       6.79529617       7.02119677      15.90762652 
Rh       9.54777988       7.04203815      15.82988518 
Rh       9.47818285       2.37430072      15.90762652 
Rh       4.11240948       2.37430072      15.90762652 
Rh       6.79529617       2.35479443      15.84409457 
Rh      10.87247387       4.74760085      15.82988518 
Rh       5.43695988       4.70750189      15.84409457 
Rh       8.15363245       4.70750189      15.84409457 
Ir       8.16588517       1.57110398      13.66069499 
Ir       2.71811847       1.56930643      13.58775027 
Ir       5.42470717       1.57110398      13.66069499 
Ir       9.51762279       3.91238222      13.66069499 
Ir       4.07296954       3.91238222      13.66069499 
Ir       6.79529617       3.92326607      13.64720327 
Ir      10.87247387       6.27722571      13.64752909 
Ir       5.44355854       6.28631201      13.66069499 
Ir       8.14703379       6.28631201      13.66069499 
N       2.71811847       1.56930643      16.92875770 
