46
Lattice="8.267761186209963 0.0 0.0 4.133880593104982 7.160091219680793 0.0 0.0 0.0 23.000798320623197" Properties=species:S:1:pos:R:3 pbc="T T T"
Pt       8.26776119       1.59113138       7.00000000 
Pt       2.75592040       1.59113138       7.00000000 
Pt       5.51184079       1.59113138       7.00000000 
Pt       9.64572138       3.97782846       7.00000000 
Pt       4.13388059       3.97782846       7.00000000 
Pt       6.88980099       3.97782846       7.00000000 
Pt      11.02368158       6.36452553       7.00000000 
Pt       5.51184079       6.36452553       7.00000000 
Pt       8.26776119       6.36452553       7.00000000 
Pt       0.00000000       0.00000000       9.25019958 
Pt       2.75592040       0.00000000       9.25019958 
Pt       5.51184079       0.00000000       9.25019958 
Pt       1.37796020       2.38669707       9.25019958 
Pt       4.13388059       2.38669707       9.25019958 
Pt       6.88980099       2.38669707       9.25019958 
Pt       2.75592040       4.77339415       9.25019958 
Pt       5.51184079       4.77339415       9.25019958 
Pt       8.26776119       4.77339415       9.25019958 
Pt       1.37796020       0.79556569      11.50039916 
Pt       4.13388059       0.79556569      11.50039916 
Pt       6.88980099       0.79556569      11.50039916 
Pt       2.75592040       3.18226276      11.50039916 
Pt       5.51184079       3.18226276      11.50039916 
Pt       8.26776119       3.18226276      11.50039916 
Pt       4.13388059       5.56895984      11.50039916 
Pt       6.88980099       5.56895984      11.50039916 
Pt       9.64572138       5.56895984      11.50039916 
Pt       0.00000000       0.00000000      16.12178187 
Pt       6.89313961       7.15895131      16.00179526 
Pt       9.64238276       7.15895131      16.00179526 
Pt       9.64640350       2.39015836      16.00179526 
Pt       4.13388059       2.38669707      16.00423545 
Pt       6.88911887       2.39015836      16.00179526 
Pt      11.02102508       4.77107277      16.00179526 
Pt       5.51449729       4.77107277      16.00179526 
Pt       8.26776119       4.77339415      16.01049298 
Ir       8.26776119       1.57464596      13.74303047 
Ir       2.75414518       1.59010646      13.72957771 
Ir       5.51361601       1.59010646      13.72957771 
Ir       9.64486513       3.97832282      13.73450271 
Ir       4.13388059       3.97987830      13.72957771 
Ir       6.89065725       3.97832282      13.73450271 
Ir      11.03795837       6.37276824      13.74303047 
Ir       5.49756400       6.37276824      13.74303047 
Ir       8.26776119       6.36353681      13.73450271 
H       0.00000000       0.00000000      17.69276125 
