46
Lattice="8.072811846636833 0.0 0.0 4.036405923318417 6.991260139159463 0.0 0.0 0.0 22.78856436166909" Properties=species:S:1:pos:R:3 pbc="T T T"
Rh       8.07281185       1.55361336       7.00000000 
Rh       2.69093728       1.55361336       7.00000000 
Rh       5.38187456       1.55361336       7.00000000 
Rh       9.41828049       3.88403341       7.00000000 
Rh       4.03640592       3.88403341       7.00000000 
Rh       6.72734321       3.88403341       7.00000000 
Rh      10.76374913       6.21445346       7.00000000 
Rh       5.38187456       6.21445346       7.00000000 
Rh       8.07281185       6.21445346       7.00000000 
Rh       0.00000000       0.00000000       9.19714109 
Rh       2.69093728       0.00000000       9.19714109 
Rh       5.38187456       0.00000000       9.19714109 
Rh       1.34546864       2.33042005       9.19714109 
Rh       4.03640592       2.33042005       9.19714109 
Rh       6.72734321       2.33042005       9.19714109 
Rh       2.69093728       4.66084009       9.19714109 
Rh       5.38187456       4.66084009       9.19714109 
Rh       8.07281185       4.66084009       9.19714109 
Rh       1.34546864       0.77680668      11.39428218 
Rh       4.03640592       0.77680668      11.39428218 
Rh       6.72734321       0.77680668      11.39428218 
Rh       2.69093728       3.10722673      11.39428218 
Rh       5.38187456       3.10722673      11.39428218 
Rh       8.07281185       3.10722673      11.39428218 
Rh       4.03640592       5.43764677      11.39428218 
Rh       6.72734321       5.43764677      11.39428218 
Rh       9.41828049       5.43764677      11.39428218 
Rh      12.07075239       6.96905214      15.49811747 
Rh       6.72734321       6.92737993      15.58531868 
Rh       9.45674587       6.96905214      15.49811747 
Rh       9.36295860       2.36236015      15.58531868 
Rh       4.09172781       2.36236015      15.58531868 
Rh       6.72734321       2.32323122      15.52767348 
Rh      10.76374913       4.70525609      15.49811747 
Rh       5.37564886       4.66443450      15.52767348 
Rh       8.07903755       4.66443450      15.52767348 
Co       8.08015718       1.55345746      13.50129659 
Co       2.69093728       1.55361336      13.48515910 
Co       5.37452923       1.55345746      13.50129659 
Co       9.42208817       3.87775012      13.50129659 
Co       4.03259824       3.87775012      13.50129659 
Co       6.72734321       3.88403341      13.50346380 
Co      10.76374913       6.21445346      13.47701140 
Co       5.38541221       6.22089265      13.50129659 
Co       8.06927420       6.22089265      13.50129659 
N       2.69093728       1.55361336      16.58111330 
