46
Lattice="8.317442508656132 0.0 0.0 4.158721254328066 7.20311650701278 0.0 0.0 0.0 23.05488449384088" Properties=species:S:1:pos:R:3 pbc="T T T"
Rh       8.31744251       1.60069256       7.00000000 
Rh       2.77248084       1.60069256       7.00000000 
Rh       5.54496167       1.60069256       7.00000000 
Rh       9.70368293       4.00173139       7.00000000 
Rh       4.15872125       4.00173139       7.00000000 
Rh       6.93120209       4.00173139       7.00000000 
Rh      11.08992334       6.40277023       7.00000000 
Rh       5.54496167       6.40277023       7.00000000 
Rh       8.31744251       6.40277023       7.00000000 
Rh       0.00000000       0.00000000       9.26372112 
Rh       2.77248084       0.00000000       9.26372112 
Rh       5.54496167       0.00000000       9.26372112 
Rh       1.38624042       2.40103884       9.26372112 
Rh       4.15872125       2.40103884       9.26372112 
Rh       6.93120209       2.40103884       9.26372112 
Rh       2.77248084       4.80207767       9.26372112 
Rh       5.54496167       4.80207767       9.26372112 
Rh       8.31744251       4.80207767       9.26372112 
Rh       1.38624042       0.80034628      11.52744225 
Rh       4.15872125       0.80034628      11.52744225 
Rh       6.93120209       0.80034628      11.52744225 
Rh       2.77248084       3.20138511      11.52744225 
Rh       5.54496167       3.20138511      11.52744225 
Rh       8.31744251       3.20138511      11.52744225 
Rh       4.15872125       5.60242395      11.52744225 
Rh       6.93120209       5.60242395      11.52744225 
Rh       9.70368293       5.60242395      11.52744225 
Rh      12.41951269       7.17040899      15.64927756 
Rh       6.98785317       7.17040899      15.64927756 
Rh       5.54496167       0.00413983      15.53575284 
Rh       9.70368293       2.46645386      15.64927756 
Rh       4.20128795       2.42561473      15.55019302 
Rh       6.88863540       2.42561473      15.55019302 
Rh       2.77606603       4.80000776      15.53575284 
Rh       5.54496167       4.75292589      15.55019302 
Rh       8.31385731       4.80000776      15.53575284 
Co       8.30216749       1.60951159      13.59502738 
Co       2.78775585       1.60951159      13.59502738 
Co       5.54496167       1.58805619      13.56913236 
Co       9.70368293       4.00655355      13.57400438 
Co       4.14777784       4.00804958      13.56913236 
Co       6.94214551       4.00804958      13.56913236 
Co      11.08574723       6.40035915      13.57400438 
Co       5.54496167       6.38513216      13.59502738 
Co       8.32161862       6.40035915      13.57400438 
O       1.38624042       0.80034628      16.75060920 
