46
Lattice="8.267761186209963 0.0 0.0 4.133880593104982 7.160091219680793 0.0 0.0 0.0 23.000798320623197" Properties=species:S:1:pos:R:3 pbc="T T T"
Pt       8.26776119       1.59113138       7.00000000 
Pt       2.75592040       1.59113138       7.00000000 
Pt       5.51184079       1.59113138       7.00000000 
Pt       9.64572138       3.97782846       7.00000000 
Pt       4.13388059       3.97782846       7.00000000 
Pt       6.88980099       3.97782846       7.00000000 
Pt      11.02368158       6.36452553       7.00000000 
Pt       5.51184079       6.36452553       7.00000000 
Pt       8.26776119       6.36452553       7.00000000 
Pt       0.00000000       0.00000000       9.25019958 
Pt       2.75592040       0.00000000       9.25019958 
Pt       5.51184079       0.00000000       9.25019958 
Pt       1.37796020       2.38669707       9.25019958 
Pt       4.13388059       2.38669707       9.25019958 
Pt       6.88980099       2.38669707       9.25019958 
Pt       2.75592040       4.77339415       9.25019958 
Pt       5.51184079       4.77339415       9.25019958 
Pt       8.26776119       4.77339415       9.25019958 
Pt       1.37796020       0.79556569      11.50039916 
Pt       4.13388059       0.79556569      11.50039916 
Pt       6.88980099       0.79556569      11.50039916 
Pt       2.75592040       3.18226276      11.50039916 
Pt       5.51184079       3.18226276      11.50039916 
Pt       8.26776119       3.18226276      11.50039916 
Pt       4.13388059       5.56895984      11.50039916 
Pt       6.88980099       5.56895984      11.50039916 
Pt       9.64572138       5.56895984      11.50039916 
Pt       0.00000000       0.00000000      16.05510637 
Pt       2.75975072       0.00140230      15.99908351 
Pt       5.50801046       0.00140230      15.99908351 
Pt       1.38108979       2.38931308      15.99908351 
Pt       4.13388059       2.38669707      16.00392989 
Pt       6.88667140       2.38931308      15.99908351 
Pt       2.75521966       4.76937584      15.99908351 
Pt       5.51254153       4.76937584      15.99908351 
Pt       8.26776119       4.77339415      16.00465920 
W       8.26776119       1.56963932      13.72548231 
W       2.75306253       1.58948140      13.74770908 
W       5.51469865       1.58948140      13.74770908 
W       9.64928462       3.97577122      13.77257160 
W       4.13388059       3.98112843      13.74770908 
W       6.88623776       3.97577122      13.77257160 
W      11.04229425       6.37527156      13.72548231 
W       5.49322812       6.37527156      13.72548231 
W       8.26776119       6.36863999      13.77257160 
H       0.00000000       0.00000000      17.67480487 
