46
Lattice="8.141275339404878 0.0 0.0 4.070637669702439 7.0505512631284 0.0 0.0 0.0 22.863097972020395" Properties=species:S:1:pos:R:3 pbc="T T T"
Ir       8.14127534       1.56678917       7.00000000 
Ir       2.71375845       1.56678917       7.00000000 
Ir       5.42751689       1.56678917       7.00000000 
Ir       9.49815456       3.91697292       7.00000000 
Ir       4.07063767       3.91697292       7.00000000 
Ir       6.78439612       3.91697292       7.00000000 
Ir      10.85503379       6.26715668       7.00000000 
Ir       5.42751689       6.26715668       7.00000000 
Ir       8.14127534       6.26715668       7.00000000 
Ir       0.00000000       0.00000000       9.21577449 
Ir       2.71375845       0.00000000       9.21577449 
Ir       5.42751689       0.00000000       9.21577449 
Ir       1.35687922       2.35018375       9.21577449 
Ir       4.07063767       2.35018375       9.21577449 
Ir       6.78439612       2.35018375       9.21577449 
Ir       2.71375845       4.70036751       9.21577449 
Ir       5.42751689       4.70036751       9.21577449 
Ir       8.14127534       4.70036751       9.21577449 
Ir       1.35687922       0.78339458      11.43154899 
Ir       4.07063767       0.78339458      11.43154899 
Ir       6.78439612       0.78339458      11.43154899 
Ir       2.71375845       3.13357834      11.43154899 
Ir       5.42751689       3.13357834      11.43154899 
Ir       8.14127534       3.13357834      11.43154899 
Ir       4.07063767       5.48376209      11.43154899 
Ir       6.78439612       5.48376209      11.43154899 
Ir       9.49815456       5.48376209      11.43154899 
Ir       8.14735070       1.56328156      13.66921636 
Ir       2.70768309       1.56328156      13.66921636 
Ir       5.42751689       1.55825760      13.67889499 
Ir       9.49815456       3.90992507      13.67697009 
Ir       4.06324911       3.92123871      13.67889499 
Ir       6.79178467       3.92123871      13.67889499 
Ir      10.86113741       6.27068061      13.67697009 
Ir       5.42751689       6.27417190      13.66921636 
Ir       8.13517172       6.27068061      13.67697009 
Ir      12.18664921       7.03596520      16.00386090 
Ir       6.80965992       7.03596520      16.00386090 
Ir       9.49815456       7.04850724      15.87212710 
Ir       9.49815456       2.37935588      16.00386090 
Ir       4.10575278       2.37045747      15.87761465 
Ir       6.74928101       2.37045747      15.87761465 
Ir      10.85326361       4.70138952      15.87212710 
Ir       5.42751689       4.65982007      15.87761465 
Ir       8.14304551       4.70138952      15.87212710 
N       1.35687922       0.78339458      17.16918415 
