46
Lattice="8.436491006336698 0.0 0.0 4.218245503168349 7.306215530286524 0.0 0.0 0.0 23.184488082268565" Properties=species:S:1:pos:R:3 pbc="T T T"
Pt       8.43649101       1.62360345       7.00000000 
Pt       2.81216367       1.62360345       7.00000000 
Pt       5.62432734       1.62360345       7.00000000 
Pt       9.84257284       4.05900863       7.00000000 
Pt       4.21824550       4.05900863       7.00000000 
Pt       7.03040917       4.05900863       7.00000000 
Pt      11.24865468       6.49441380       7.00000000 
Pt       5.62432734       6.49441380       7.00000000 
Pt       8.43649101       6.49441380       7.00000000 
Pt       0.00000000       0.00000000       9.29612202 
Pt       2.81216367       0.00000000       9.29612202 
Pt       5.62432734       0.00000000       9.29612202 
Pt       1.40608183       2.43540518       9.29612202 
Pt       4.21824550       2.43540518       9.29612202 
Pt       7.03040917       2.43540518       9.29612202 
Pt       2.81216367       4.87081035       9.29612202 
Pt       5.62432734       4.87081035       9.29612202 
Pt       8.43649101       4.87081035       9.29612202 
Pt       1.40608183       0.81180173      11.59224404 
Pt       4.21824550       0.81180173      11.59224404 
Pt       7.03040917       0.81180173      11.59224404 
Pt       2.81216367       3.24720690      11.59224404 
Pt       5.62432734       3.24720690      11.59224404 
Pt       8.43649101       3.24720690      11.59224404 
Pt       4.21824550       5.68261208      11.59224404 
Pt       7.03040917       5.68261208      11.59224404 
Pt       9.84257284       5.68261208      11.59224404 
Pt      12.52245851       7.22984479      16.46816775 
Pt       7.16268718       7.22984479      16.46816775 
Pt       9.84257284       7.30389347      16.34288409 
Pt       9.84257284       2.58814666      16.46816775 
Pt       4.25694362       2.45774754      16.35653022 
Pt       6.99171106       2.45774754      16.35653022 
Pt      11.24664371       4.87197138      16.34288409 
Pt       5.62432734       4.82612562      16.35653022 
Pt       8.43850197       4.87197138      16.34288409 
Ag       8.44198837       1.62042955      14.02811786 
Ag       2.80666630       1.62042955      14.02811786 
Ag       5.62432734       1.62394869      13.96696352 
Ag       9.84257284       4.05430646      13.96989248 
Ag       4.21854449       4.05883601      13.96696352 
Ag       7.03011019       4.05883601      13.96696352 
Ag      11.25272687       6.49676489      13.96989248 
Ag       5.62432734       6.50076161      14.02811786 
Ag       8.43241881       6.49676489      13.96989248 
O       1.40608183       0.81180173      17.43806135 
