46
Lattice="7.991268292630401 0.0 0.0 3.9956341463152003 6.920641349875024 0.0 0.0 0.0 22.699790984278494" Properties=species:S:1:pos:R:3 pbc="T T T"
Rh       7.99126829       1.53792030       7.00000000 
Rh       2.66375610       1.53792030       7.00000000 
Rh       5.32751220       1.53792030       7.00000000 
Rh       9.32314634       3.84480075       7.00000000 
Rh       3.99563415       3.84480075       7.00000000 
Rh       6.65939024       3.84480075       7.00000000 
Rh      10.65502439       6.15168120       7.00000000 
Rh       5.32751220       6.15168120       7.00000000 
Rh       7.99126829       6.15168120       7.00000000 
Rh       0.00000000       0.00000000       9.17494775 
Rh       2.66375610       0.00000000       9.17494775 
Rh       5.32751220       0.00000000       9.17494775 
Rh       1.33187805       2.30688045       9.17494775 
Rh       3.99563415       2.30688045       9.17494775 
Rh       6.65939024       2.30688045       9.17494775 
Rh       2.66375610       4.61376090       9.17494775 
Rh       5.32751220       4.61376090       9.17494775 
Rh       7.99126829       4.61376090       9.17494775 
Rh       1.33187805       0.76896015      11.34989549 
Rh       3.99563415       0.76896015      11.34989549 
Rh       6.65939024       0.76896015      11.34989549 
Rh       2.66375610       3.07584060      11.34989549 
Rh       5.32751220       3.07584060      11.34989549 
Rh       7.99126829       3.07584060      11.34989549 
Rh       3.99563415       5.38272105      11.34989549 
Rh       6.65939024       5.38272105      11.34989549 
Rh       9.32314634       5.38272105      11.34989549 
Rh      11.95553843       6.90253333      15.51940699 
Rh       6.65939024       6.84331614      15.65236736 
Rh       9.35451035       6.90253333      15.51940699 
Rh       9.25618075       2.34554305      15.65236736 
Rh       4.06259974       2.34554305      15.65236736 
Rh       6.65939024       2.29874486      15.55594893 
Rh      10.65502439       4.64997694      15.51940699 
Rh       5.32046657       4.61782869      15.55594893 
Rh       7.99831392       4.61782869      15.55594893 
Fe       7.98196189       1.53174609      13.49076742 
Fe       2.66375610       1.53792030      13.54747358 
Fe       5.33681860       1.53174609      13.49076742 
Fe       9.32384016       3.85594743      13.49076742 
Fe       3.99494033       3.85594743      13.49076742 
Fe       6.65939024       3.84480075      13.50466996 
Fe      10.65502439       6.15168120      13.46494981 
Fe       5.31751197       6.14670872      13.49076742 
Fe       8.00126851       6.14670872      13.49076742 
C       2.66375610       1.53792030      16.63218490 
