46
Lattice="8.267761186209963 0.0 0.0 4.133880593104982 7.160091219680793 0.0 0.0 0.0 23.000798320623197" Properties=species:S:1:pos:R:3 pbc="T T T"
Pt       8.26776119       1.59113138       7.00000000 
Pt       2.75592040       1.59113138       7.00000000 
Pt       5.51184079       1.59113138       7.00000000 
Pt       9.64572138       3.97782846       7.00000000 
Pt       4.13388059       3.97782846       7.00000000 
Pt       6.88980099       3.97782846       7.00000000 
Pt      11.02368158       6.36452553       7.00000000 
Pt       5.51184079       6.36452553       7.00000000 
Pt       8.26776119       6.36452553       7.00000000 
Pt       0.00000000       0.00000000       9.25019958 
Pt       2.75592040       0.00000000       9.25019958 
Pt       5.51184079       0.00000000       9.25019958 
Pt       1.37796020       2.38669707       9.25019958 
Pt       4.13388059       2.38669707       9.25019958 
Pt       6.88980099       2.38669707       9.25019958 
Pt       2.75592040       4.77339415       9.25019958 
Pt       5.51184079       4.77339415       9.25019958 
Pt       8.26776119       4.77339415       9.25019958 
Pt       1.37796020       0.79556569      11.50039916 
Pt       4.13388059       0.79556569      11.50039916 
Pt       6.88980099       0.79556569      11.50039916 
Pt       2.75592040       3.18226276      11.50039916 
Pt       5.51184079       3.18226276      11.50039916 
Pt       8.26776119       3.18226276      11.50039916 
Pt       4.13388059       5.56895984      11.50039916 
Pt       6.88980099       5.56895984      11.50039916 
Pt       9.64572138       5.56895984      11.50039916 
Pt      12.33430665       7.12121526      16.04105685 
Pt       6.95713612       7.12121526      16.04105685 
Pt       9.64572138       7.15910873      15.88395035 
Pt       9.64572138       2.46444899      16.04105685 
Pt       4.15320015       2.39785122      15.89096909 
Pt       6.87048143       2.39785122      15.89096909 
Pt      11.02283072       4.77388539      15.88395035 
Pt       5.51184079       4.75108585      15.89096909 
Pt       8.26861204       4.77388539      15.88395035 
Ru       8.28026049       1.58391490      13.65827039 
Ru       2.74342109       1.58391490      13.65827039 
Ru       5.51184079       1.58246581      13.67436339 
Ru       9.64572138       3.95185805      13.67865488 
Ru       4.12637599       3.98216124      13.67436339 
Ru       6.89730559       3.98216124      13.67436339 
Ru      11.04617261       6.37751073      13.67865488 
Ru       5.51184079       6.37895848      13.65827039 
Ru       8.24527016       6.37751073      13.67865488 
C       1.37796020       0.79556569      17.01764958 
