46
Lattice="8.267761186209963 0.0 0.0 4.133880593104982 7.160091219680793 0.0 0.0 0.0 23.000798320623197" Properties=species:S:1:pos:R:3 pbc="T T T"
Pt       8.26776119       1.59113138       7.00000000 
Pt       2.75592040       1.59113138       7.00000000 
Pt       5.51184079       1.59113138       7.00000000 
Pt       9.64572138       3.97782846       7.00000000 
Pt       4.13388059       3.97782846       7.00000000 
Pt       6.88980099       3.97782846       7.00000000 
Pt      11.02368158       6.36452553       7.00000000 
Pt       5.51184079       6.36452553       7.00000000 
Pt       8.26776119       6.36452553       7.00000000 
Pt       0.00000000       0.00000000       9.25019958 
Pt       2.75592040       0.00000000       9.25019958 
Pt       5.51184079       0.00000000       9.25019958 
Pt       1.37796020       2.38669707       9.25019958 
Pt       4.13388059       2.38669707       9.25019958 
Pt       6.88980099       2.38669707       9.25019958 
Pt       2.75592040       4.77339415       9.25019958 
Pt       5.51184079       4.77339415       9.25019958 
Pt       8.26776119       4.77339415       9.25019958 
Pt       1.37796020       0.79556569      11.50039916 
Pt       4.13388059       0.79556569      11.50039916 
Pt       6.88980099       0.79556569      11.50039916 
Pt       2.75592040       3.18226276      11.50039916 
Pt       5.51184079       3.18226276      11.50039916 
Pt       8.26776119       3.18226276      11.50039916 
Pt       4.13388059       5.56895984      11.50039916 
Pt       6.88980099       5.56895984      11.50039916 
Pt       9.64572138       5.56895984      11.50039916 
Pt      12.34260379       7.12600562      16.02936246 
Pt       6.94883898       7.12600562      16.02936246 
Pt       9.64572138       7.15590063      15.88084902 
Pt       9.64572138       2.45486827      16.02936246 
Pt       4.15165162       2.39695718      15.88995469 
Pt       6.87202996       2.39695718      15.88995469 
Pt      11.02005243       4.77548944      15.88084902 
Pt       5.51184079       4.75287393      15.88995469 
Pt       8.27139034       4.77548944      15.88084902 
Ru       8.27858911       1.58487988      13.65692230 
Ru       2.74509248       1.58487988      13.65692230 
Ru       5.51184079       1.58319543      13.67397595 
Ru       9.64572138       3.95152362      13.68405892 
Ru       4.12700786       3.98179643      13.67397595 
Ru       6.89667372       3.98179643      13.67397595 
Ru      11.04646223       6.37767794      13.68405892 
Ru       5.51184079       6.37702853      13.65692230 
Ru       8.24498053       6.37767794      13.68405892 
N       1.37796020       0.79556569      17.07671863 
