46
Lattice="8.520855916400066 0.0 0.0 4.260427958200033 7.37927768558939 0.0 0.0 0.0 23.276332963091257" Properties=species:S:1:pos:R:3 pbc="T T T"
Pt       8.52085592       1.63983949       7.00000000 
Pt       2.84028531       1.63983949       7.00000000 
Pt       5.68057061       1.63983949       7.00000000 
Pt       9.94099857       4.09959871       7.00000000 
Pt       4.26042796       4.09959871       7.00000000 
Pt       7.10071326       4.09959871       7.00000000 
Pt      11.36114122       6.55935794       7.00000000 
Pt       5.68057061       6.55935794       7.00000000 
Pt       8.52085592       6.55935794       7.00000000 
Pt       0.00000000       0.00000000       9.31908324 
Pt       2.84028531       0.00000000       9.31908324 
Pt       5.68057061       0.00000000       9.31908324 
Pt       1.42014265       2.45975923       9.31908324 
Pt       4.26042796       2.45975923       9.31908324 
Pt       7.10071326       2.45975923       9.31908324 
Pt       2.84028531       4.91951846       9.31908324 
Pt       5.68057061       4.91951846       9.31908324 
Pt       8.52085592       4.91951846       9.31908324 
Pt       1.42014265       0.81991974      11.63816648 
Pt       4.26042796       0.81991974      11.63816648 
Pt       7.10071326       0.81991974      11.63816648 
Pt       2.84028531       3.27967897      11.63816648 
Pt       5.68057061       3.27967897      11.63816648 
Pt       8.52085592       3.27967897      11.63816648 
Pt       4.26042796       5.73943820      11.63816648 
Pt       7.10071326       5.73943820      11.63816648 
Pt       9.94099857       5.73943820      11.63816648 
Pt       0.00000000       0.00000000      15.85258969 
Pt       7.10911603       7.37682415      15.76513092 
Pt       9.93259580       7.37682415      15.76513092 
Pt       9.94307513       2.46826300      15.76513092 
Pt       4.26042796       2.45975923      15.76241391 
Pt       7.09863670       2.46826300      15.76513092 
Pt      11.35481502       4.91346821      15.76513092 
Pt       5.68689681       4.91346821      15.76513092 
Pt       8.52085592       4.91951846      15.76408216 
Cu       8.52085592       1.62855297      13.70876127 
Cu       2.83912440       1.63916924      13.70288248 
Cu       5.68173152       1.63916924      13.70288248 
Cu       9.94092108       4.09964345      13.70111718 
Cu       4.26042796       4.10093922      13.70288248 
Cu       7.10079075       4.09964345      13.70111718 
Cu      11.37091564       6.56500120      13.70876127 
Cu       5.67079620       6.56500120      13.70876127 
Cu       8.52085592       6.55926847      13.70111718 
H       0.00000000       0.00000000      17.41378129 
