46
Lattice="8.223510443843312 0.0 0.0 4.111755221921656 7.121768952654951 0.0 0.0 0.0 22.952624214162014" Properties=species:S:1:pos:R:3 pbc="T T T"
Ir       8.22351044       1.58261532       7.00000000 
Ir       2.74117015       1.58261532       7.00000000 
Ir       5.48234030       1.58261532       7.00000000 
Ir       9.59409552       3.95653831       7.00000000 
Ir       4.11175522       3.95653831       7.00000000 
Ir       6.85292537       3.95653831       7.00000000 
Ir      10.96468059       6.33046129       7.00000000 
Ir       5.48234030       6.33046129       7.00000000 
Ir       8.22351044       6.33046129       7.00000000 
Ir       0.00000000       0.00000000       9.23815605 
Ir       2.74117015       0.00000000       9.23815605 
Ir       5.48234030       0.00000000       9.23815605 
Ir       1.37058507       2.37392298       9.23815605 
Ir       4.11175522       2.37392298       9.23815605 
Ir       6.85292537       2.37392298       9.23815605 
Ir       2.74117015       4.74784597       9.23815605 
Ir       5.48234030       4.74784597       9.23815605 
Ir       8.22351044       4.74784597       9.23815605 
Ir       1.37058507       0.79130766      11.47631211 
Ir       4.11175522       0.79130766      11.47631211 
Ir       6.85292537       0.79130766      11.47631211 
Ir       2.74117015       3.16523065      11.47631211 
Ir       5.48234030       3.16523065      11.47631211 
Ir       8.22351044       3.16523065      11.47631211 
Ir       4.11175522       5.53915363      11.47631211 
Ir       6.85292537       5.53915363      11.47631211 
Ir       9.59409552       5.53915363      11.47631211 
Ir      12.23062045       7.06135201      15.66121735 
Ir       6.95757059       7.06135201      15.66121735 
Ir       5.48234030       0.01014471      15.53046842 
Ir       9.59409552       2.49475687      15.66121735 
Ir       4.16025887       2.40192658      15.52399133 
Ir       6.80442172       2.40192658      15.52399133 
Ir       2.74995573       4.74277361      15.53046842 
Ir       5.48234030       4.69183878      15.52399133 
Ir       8.21472487       4.74277361      15.53046842 
Ni       8.23743439       1.57457633      13.56089343 
Ni       2.72724620       1.57457633      13.56089343 
Ni       5.48234030       1.57012290      13.51808205 
Ni       9.59409552       3.93552858      13.53022472 
Ni       4.10093647       3.96278452      13.51808205 
Ni       6.86374412       3.96278452      13.51808205 
Ni      10.98287555       6.34096616      13.53022472 
Ni       5.48234030       6.34653928      13.56089343 
Ni       8.20531548       6.34096616      13.53022472 
N       1.37058507       0.79130766      16.58902682 
