46
Lattice="8.226599086263533 0.0 0.0 4.113299543131767 7.12444379545407 0.0 0.0 0.0 22.955986702129774" Properties=species:S:1:pos:R:3 pbc="T T T"
Pd       8.22659909       1.58320973       7.00000000 
Pd       2.74219970       1.58320973       7.00000000 
Pd       5.48439939       1.58320973       7.00000000 
Pd       9.59769893       3.95802433       7.00000000 
Pd       4.11329954       3.95802433       7.00000000 
Pd       6.85549924       3.95802433       7.00000000 
Pd      10.96879878       6.33283893       7.00000000 
Pd       5.48439939       6.33283893       7.00000000 
Pd       8.22659909       6.33283893       7.00000000 
Pd       0.00000000       0.00000000       9.23899668 
Pd       2.74219970       0.00000000       9.23899668 
Pd       5.48439939       0.00000000       9.23899668 
Pd       1.37109985       2.37481460       9.23899668 
Pd       4.11329954       2.37481460       9.23899668 
Pd       6.85549924       2.37481460       9.23899668 
Pd       2.74219970       4.74962920       9.23899668 
Pd       5.48439939       4.74962920       9.23899668 
Pd       8.22659909       4.74962920       9.23899668 
Pd       1.37109985       0.79160487      11.47799335 
Pd       4.11329954       0.79160487      11.47799335 
Pd       6.85549924       0.79160487      11.47799335 
Pd       2.74219970       3.16641946      11.47799335 
Pd       5.48439939       3.16641946      11.47799335 
Pd       8.22659909       3.16641946      11.47799335 
Pd       4.11329954       5.54123406      11.47799335 
Pd       6.85549924       5.54123406      11.47799335 
Pd       9.59769893       5.54123406      11.47799335 
Pd      12.27047686       7.08436312      16.38026689 
Pd       6.92492101       7.08436312      16.38026689 
Pd       5.48439939       0.00073983      16.23222759 
Pd       9.59769893       2.45497595      16.38026689 
Pd       4.13867880       2.38946732      16.26422075 
Pd       6.83011998       2.38946732      16.26422075 
Pd       2.74284040       4.74925928      16.23222759 
Pd       5.48439939       4.72032375      16.26422075 
Pd       8.22595838       4.74925928      16.23222759 
Ag       8.22857385       1.58206960      13.91974103 
Ag       2.74022493       1.58206960      13.91974103 
Ag       5.48439939       1.58425314      13.87287371 
Ag       9.59769893       3.95448723      13.87952442 
Ag       4.11420316       3.95750263      13.87287371 
Ag       6.85459562       3.95750263      13.87287371 
Ag      10.97186200       6.33460748      13.87952442 
Ag       5.48439939       6.33511919      13.91974103 
Ag       8.22353587       6.33460748      13.87952442 
O       1.37109985       0.79160487      17.47684072 
