46
Lattice="8.35212609627333 0.0 0.0 4.176063048136665 7.233153374983659 0.0 0.0 0.0 23.09264320144588" Properties=species:S:1:pos:R:3 pbc="T T T"
Pt       8.35212610       1.60736742       7.00000000 
Pt       2.78404203       1.60736742       7.00000000 
Pt       5.56808406       1.60736742       7.00000000 
Pt       9.74414711       4.01841854       7.00000000 
Pt       4.17606305       4.01841854       7.00000000 
Pt       6.96010508       4.01841854       7.00000000 
Pt      11.13616813       6.42946967       7.00000000 
Pt       5.56808406       6.42946967       7.00000000 
Pt       8.35212610       6.42946967       7.00000000 
Pt       0.00000000       0.00000000       9.27316080 
Pt       2.78404203       0.00000000       9.27316080 
Pt       5.56808406       0.00000000       9.27316080 
Pt       1.39202102       2.41105112       9.27316080 
Pt       4.17606305       2.41105112       9.27316080 
Pt       6.96010508       2.41105112       9.27316080 
Pt       2.78404203       4.82210225       9.27316080 
Pt       5.56808406       4.82210225       9.27316080 
Pt       8.35212610       4.82210225       9.27316080 
Pt       1.39202102       0.80368371      11.54632160 
Pt       4.17606305       0.80368371      11.54632160 
Pt       6.96010508       0.80368371      11.54632160 
Pt       2.78404203       3.21473483      11.54632160 
Pt       5.56808406       3.21473483      11.54632160 
Pt       8.35212610       3.21473483      11.54632160 
Pt       4.17606305       5.62578596      11.54632160 
Pt       6.96010508       5.62578596      11.54632160 
Pt       9.74414711       5.62578596      11.54632160 
Pt       8.36141227       1.60200604      13.85910197 
Pt       2.77475586       1.60200604      13.85910197 
Pt       5.56808406       1.60101641      13.83072004 
Pt       9.74414711       4.00703661      13.87189380 
Pt       4.17056291       4.02159405      13.83072004 
Pt       6.96560521       4.02159405      13.83072004 
Pt      11.14602517       6.43516063      13.87189380 
Pt       5.56808406       6.44019241      13.85910197 
Pt       8.34226906       6.43516063      13.87189380 
Pt      12.43362764       7.17855826      16.30733745 
Pt       7.05466659       7.17855826      16.30733745 
Pt       5.56808406       0.00704986      16.18937423 
Pt       9.74414711       2.52024135      16.30733745 
Pt       4.20475059       2.42761388      16.14991958 
Pt       6.93141754       2.42761388      16.14991958 
Pt       2.79014739       4.81857732      16.18937423 
Pt       5.56808406       4.78897673      16.14991958 
Pt       8.34602073       4.81857732      16.18937423 
C       1.39202102       0.80368371      17.13775448 
