45
Lattice="8.605220826463434 0.0 0.0 4.302610413231717 7.452339840892254 0.0 0.0 0.0 23.36817784391394" Properties=species:S:1:pos:R:3 pbc="T T T"
Pt       8.60522083       1.65607552       7.00000000 
Pt       2.86840694       1.65607552       7.00000000 
Pt       5.73681388       1.65607552       7.00000000 
Pt      10.03942430       4.14018880       7.00000000 
Pt       4.30261041       4.14018880       7.00000000 
Pt       7.17101736       4.14018880       7.00000000 
Pt      11.47362777       6.62430208       7.00000000 
Pt       5.73681388       6.62430208       7.00000000 
Pt       8.60522083       6.62430208       7.00000000 
Pt       0.00000000       0.00000000       9.34204446 
Pt       2.86840694       0.00000000       9.34204446 
Pt       5.73681388       0.00000000       9.34204446 
Pt       1.43420347       2.48411328       9.34204446 
Pt       4.30261041       2.48411328       9.34204446 
Pt       7.17101736       2.48411328       9.34204446 
Pt       2.86840694       4.96822656       9.34204446 
Pt       5.73681388       4.96822656       9.34204446 
Pt       8.60522083       4.96822656       9.34204446 
Pt       1.43420347       0.82803776      11.68408892 
Pt       4.30261041       0.82803776      11.68408892 
Pt       7.17101736       0.82803776      11.68408892 
Pt       2.86840694       3.31215104      11.68408892 
Pt       5.73681388       3.31215104      11.68408892 
Pt       8.60522083       3.31215104      11.68408892 
Pt       4.30261041       5.79626432      11.68408892 
Pt       7.17101736       5.79626432      11.68408892 
Pt      10.03942430       5.79626432      11.68408892 
Pt       0.00000000       0.00000000      15.75298877 
Pt       2.86840694       0.00000000      15.75298877 
Pt       5.73681388       0.00000000      15.75298877 
Pt       1.43420347       2.48411328      15.75298877 
Pt       4.30261041       2.48411328      15.75298877 
Pt       7.17101736       2.48411328      15.75298877 
Pt       2.86840694       4.96822656      15.75298877 
Pt       5.73681388       4.96822656      15.75298877 
Pt       8.60522083       4.96822656      15.75298877 
Fe       8.60522083       1.65607552      13.72801555 
Fe       2.86840694       1.65607552      13.72801555 
Fe       5.73681388       1.65607552      13.72801555 
Fe      10.03942430       4.14018880      13.72801555 
Fe       4.30261041       4.14018880      13.72801555 
Fe       7.17101736       4.14018880      13.72801555 
Fe      11.47362777       6.62430208      13.72801555 
Fe       5.73681388       6.62430208      13.72801555 
Fe       8.60522083       6.62430208      13.72801555 
