46
Lattice="8.394488863534217 0.0 0.0 4.197244431767109 7.269840607606193 0.0 0.0 0.0 23.138761940948747" Properties=species:S:1:pos:R:3 pbc="T T T"
Pd       8.39448886       1.61552014       7.00000000 
Pd       2.79816295       1.61552014       7.00000000 
Pd       5.59632591       1.61552014       7.00000000 
Pd       9.79357034       4.03880034       7.00000000 
Pd       4.19724443       4.03880034       7.00000000 
Pd       6.99540739       4.03880034       7.00000000 
Pd      11.19265182       6.46208054       7.00000000 
Pd       5.59632591       6.46208054       7.00000000 
Pd       8.39448886       6.46208054       7.00000000 
Pd       0.00000000       0.00000000       9.28469049 
Pd       2.79816295       0.00000000       9.28469049 
Pd       5.59632591       0.00000000       9.28469049 
Pd       1.39908148       2.42328020       9.28469049 
Pd       4.19724443       2.42328020       9.28469049 
Pd       6.99540739       2.42328020       9.28469049 
Pd       2.79816295       4.84656041       9.28469049 
Pd       5.59632591       4.84656041       9.28469049 
Pd       8.39448886       4.84656041       9.28469049 
Pd       1.39908148       0.80776007      11.56938097 
Pd       4.19724443       0.80776007      11.56938097 
Pd       6.99540739       0.80776007      11.56938097 
Pd       2.79816295       3.23104027      11.56938097 
Pd       5.59632591       3.23104027      11.56938097 
Pd       8.39448886       3.23104027      11.56938097 
Pd       4.19724443       5.65432047      11.56938097 
Pd       6.99540739       5.65432047      11.56938097 
Pd       9.79357034       5.65432047      11.56938097 
Pd      12.57272566       7.25886654      15.95698846 
Pd       6.99540739       7.21725623      16.05838049 
Pd       9.81257798       7.25886654      15.95698846 
Pd       9.74803094       2.44957239      16.05838049 
Pd       4.24278384       2.44957239      16.05838049 
Pd       6.99540739       2.42395969      15.96560165 
Pd      11.19265182       4.86850853      15.95698846 
Pd       5.59691436       4.84622066      15.96560165 
Pd       8.39390041       4.84622066      15.96560165 
Rh       8.40536289       1.62154616      13.76342187 
Rh       2.79816295       1.61552014      13.73790146 
Rh       5.58545188       1.62154616      13.76342187 
Rh       9.79378867       4.02637014      13.76342187 
Rh       4.19702610       4.02637014      13.76342187 
Rh       6.99540739       4.03880034      13.75907199 
Rh      11.19265182       6.46208054      13.75447421 
Rh       5.60698161       6.46848471      13.76342187 
Rh       8.38383316       6.46848471      13.76342187 
C       2.79816295       1.61552014      16.93612692 
