46
Lattice="8.394488863534217 0.0 0.0 4.197244431767109 7.269840607606193 0.0 0.0 0.0 23.138761940948747" Properties=species:S:1:pos:R:3 pbc="T T T"
Pd       8.39448886       1.61552014       7.00000000 
Pd       2.79816295       1.61552014       7.00000000 
Pd       5.59632591       1.61552014       7.00000000 
Pd       9.79357034       4.03880034       7.00000000 
Pd       4.19724443       4.03880034       7.00000000 
Pd       6.99540739       4.03880034       7.00000000 
Pd      11.19265182       6.46208054       7.00000000 
Pd       5.59632591       6.46208054       7.00000000 
Pd       8.39448886       6.46208054       7.00000000 
Pd       0.00000000       0.00000000       9.28469049 
Pd       2.79816295       0.00000000       9.28469049 
Pd       5.59632591       0.00000000       9.28469049 
Pd       1.39908148       2.42328020       9.28469049 
Pd       4.19724443       2.42328020       9.28469049 
Pd       6.99540739       2.42328020       9.28469049 
Pd       2.79816295       4.84656041       9.28469049 
Pd       5.59632591       4.84656041       9.28469049 
Pd       8.39448886       4.84656041       9.28469049 
Pd       1.39908148       0.80776007      11.56938097 
Pd       4.19724443       0.80776007      11.56938097 
Pd       6.99540739       0.80776007      11.56938097 
Pd       2.79816295       3.23104027      11.56938097 
Pd       5.59632591       3.23104027      11.56938097 
Pd       8.39448886       3.23104027      11.56938097 
Pd       4.19724443       5.65432047      11.56938097 
Pd       6.99540739       5.65432047      11.56938097 
Pd       9.79357034       5.65432047      11.56938097 
Pd      12.55912786       7.25101585      16.02159419 
Pd       7.02801282       7.25101585      16.02159419 
Pd       9.79357034       7.26554233      15.95016371 
Pd       9.79357034       2.46092971      16.02159419 
Pd       4.21245764       2.43206355      15.94573529 
Pd       6.98019417       2.43206355      15.94573529 
Pd      11.18892940       4.84870955      15.95016371 
Pd       5.59632591       4.82899370      15.94573529 
Pd       8.39821128       4.84870955      15.95016371 
Rh       8.39439368       1.61557509      13.74070798 
Rh       2.79825814       1.61557509      13.74070798 
Rh       5.59632591       1.61047716      13.75073205 
Rh       9.79357034       4.00360699      13.78819186 
Rh       4.19287709       4.04132182      13.75073205 
Rh       6.99977473       4.04132182      13.75073205 
Rh      11.22313015       6.47967722      13.78819186 
Rh       5.59632591       6.46197063      13.74070798 
Rh       8.36401053       6.47967722      13.78819186 
O       1.39908148       0.80776007      17.18824790 
