46
Lattice="8.394488863534217 0.0 0.0 4.197244431767109 7.269840607606193 0.0 0.0 0.0 23.138761940948747" Properties=species:S:1:pos:R:3 pbc="T T T"
Pd       8.39448886       1.61552014       7.00000000 
Pd       2.79816295       1.61552014       7.00000000 
Pd       5.59632591       1.61552014       7.00000000 
Pd       9.79357034       4.03880034       7.00000000 
Pd       4.19724443       4.03880034       7.00000000 
Pd       6.99540739       4.03880034       7.00000000 
Pd      11.19265182       6.46208054       7.00000000 
Pd       5.59632591       6.46208054       7.00000000 
Pd       8.39448886       6.46208054       7.00000000 
Pd       0.00000000       0.00000000       9.28469049 
Pd       2.79816295       0.00000000       9.28469049 
Pd       5.59632591       0.00000000       9.28469049 
Pd       1.39908148       2.42328020       9.28469049 
Pd       4.19724443       2.42328020       9.28469049 
Pd       6.99540739       2.42328020       9.28469049 
Pd       2.79816295       4.84656041       9.28469049 
Pd       5.59632591       4.84656041       9.28469049 
Pd       8.39448886       4.84656041       9.28469049 
Pd       1.39908148       0.80776007      11.56938097 
Pd       4.19724443       0.80776007      11.56938097 
Pd       6.99540739       0.80776007      11.56938097 
Pd       2.79816295       3.23104027      11.56938097 
Pd       5.59632591       3.23104027      11.56938097 
Pd       8.39448886       3.23104027      11.56938097 
Pd       4.19724443       5.65432047      11.56938097 
Pd       6.99540739       5.65432047      11.56938097 
Pd       9.79357034       5.65432047      11.56938097 
Pd      12.56214572       7.25275821      16.31784024 
Pd       7.02499496       7.25275821      16.31784024 
Pd       5.59632591       0.00113800      16.28313138 
Pd       9.79357034       2.45744499      16.31784024 
Pd       4.21021126       2.43076660      16.28642803 
Pd       6.98244056       2.43076660      16.28642803 
Pd       2.79914849       4.84599141      16.28313138 
Pd       5.59632591       4.83158760      16.28642803 
Pd       8.39350333       4.84599141      16.28313138 
Ag       8.39602112       1.61463549      13.94729819 
Ag       2.79663070       1.61463549      13.94729819 
Ag       5.59632591       1.61567549      13.93604209 
Ag       9.79357034       4.04068756      13.93940114 
Ag       4.19737897       4.03872266      13.93604209 
Ag       6.99527285       4.03872266      13.93604209 
Ag      11.19101744       6.46113693      13.93940114 
Ag       5.59632591       6.46384984      13.94729819 
Ag       8.39612325       6.46113693      13.93940114 
H       1.39908148       0.80776007      17.03855726 
