46
Lattice="8.310543974898875 0.0 0.0 4.155271987449438 7.197142201530131 0.0 0.0 0.0 23.04737432153926" Properties=species:S:1:pos:R:3 pbc="T T T"
Pd       8.31054397       1.59936493       7.00000000 
Pd       2.77018132       1.59936493       7.00000000 
Pd       5.54036265       1.59936493       7.00000000 
Pd       9.69563464       3.99841233       7.00000000 
Pd       4.15527199       3.99841233       7.00000000 
Pd       6.92545331       3.99841233       7.00000000 
Pd      11.08072530       6.39745973       7.00000000 
Pd       5.54036265       6.39745973       7.00000000 
Pd       8.31054397       6.39745973       7.00000000 
Pd       0.00000000       0.00000000       9.26184358 
Pd       2.77018132       0.00000000       9.26184358 
Pd       5.54036265       0.00000000       9.26184358 
Pd       1.38509066       2.39904740       9.26184358 
Pd       4.15527199       2.39904740       9.26184358 
Pd       6.92545331       2.39904740       9.26184358 
Pd       2.77018132       4.79809480       9.26184358 
Pd       5.54036265       4.79809480       9.26184358 
Pd       8.31054397       4.79809480       9.26184358 
Pd       1.38509066       0.79968247      11.52368716 
Pd       4.15527199       0.79968247      11.52368716 
Pd       6.92545331       0.79968247      11.52368716 
Pd       2.77018132       3.19872987      11.52368716 
Pd       5.54036265       3.19872987      11.52368716 
Pd       8.31054397       3.19872987      11.52368716 
Pd       4.15527199       5.59777727      11.52368716 
Pd       6.92545331       5.59777727      11.52368716 
Pd       9.69563464       5.59777727      11.52368716 
Pd      12.42835274       7.17551280      15.76409357 
Pd       6.96291654       7.17551280      15.76409357 
Pd       9.69563464       7.19666761      15.58593773 
Pd       9.69563464       2.44230620      15.76409357 
Pd       4.17648778       2.41129635      15.60601245 
Pd       6.90423752       2.41129635      15.60601245 
Pd      11.08031429       4.79833210      15.58593773 
Pd       5.54036265       4.77359691      15.60601245 
Pd       8.31095499       4.79833210      15.58593773 
Ni       8.32044366       1.59364935      13.57521193 
Ni       2.76028164       1.59364935      13.57521193 
Ni       5.54036265       1.59957944      13.55873594 
Ni       9.69563464       3.94700405      13.57180835 
Ni       4.15545776       3.99830508      13.55873594 
Ni       6.92526754       3.99830508      13.55873594 
Ni      11.12524618       6.42316388      13.57180835 
Ni       5.54036265       6.40889091      13.57521193 
Ni       8.26602309       6.42316388      13.57180835 
N       1.38509066       0.79968247      16.73648919 
