46
Lattice="8.520855916400066 0.0 0.0 4.260427958200033 7.37927768558939 0.0 0.0 0.0 23.276332963091257" Properties=species:S:1:pos:R:3 pbc="T T T"
Pt       8.52085592       1.63983949       7.00000000 
Pt       2.84028531       1.63983949       7.00000000 
Pt       5.68057061       1.63983949       7.00000000 
Pt       9.94099857       4.09959871       7.00000000 
Pt       4.26042796       4.09959871       7.00000000 
Pt       7.10071326       4.09959871       7.00000000 
Pt      11.36114122       6.55935794       7.00000000 
Pt       5.68057061       6.55935794       7.00000000 
Pt       8.52085592       6.55935794       7.00000000 
Pt       0.00000000       0.00000000       9.31908324 
Pt       2.84028531       0.00000000       9.31908324 
Pt       5.68057061       0.00000000       9.31908324 
Pt       1.42014265       2.45975923       9.31908324 
Pt       4.26042796       2.45975923       9.31908324 
Pt       7.10071326       2.45975923       9.31908324 
Pt       2.84028531       4.91951846       9.31908324 
Pt       5.68057061       4.91951846       9.31908324 
Pt       8.52085592       4.91951846       9.31908324 
Pt       1.42014265       0.81991974      11.63816648 
Pt       4.26042796       0.81991974      11.63816648 
Pt       7.10071326       0.81991974      11.63816648 
Pt       2.84028531       3.27967897      11.63816648 
Pt       5.68057061       3.27967897      11.63816648 
Pt       8.52085592       3.27967897      11.63816648 
Pt       4.26042796       5.73943820      11.63816648 
Pt       7.10071326       5.73943820      11.63816648 
Pt       9.94099857       5.73943820      11.63816648 
Pt       0.00000000       0.00000000      16.06764767 
Pt       2.84801463       0.00056840      16.03726046 
Pt       5.67284129       0.00056840      16.03726046 
Pt       1.42449956       2.46616882      16.03726046 
Pt       4.26042796       2.45975923      16.03787080 
Pt       7.09635635       2.46616882      16.03726046 
Pt       2.83691289       4.91254047      16.03726046 
Pt       5.68394303       4.91254047      16.03726046 
Pt       8.52085592       4.91951846      16.03397577 
W       8.52085592       1.62058280      13.82164048 
W       2.83677443       1.63781248      13.83979066 
W       5.68408148       1.63781248      13.83979066 
W       9.94662789       4.09634862      13.85338001 
W       4.26042796       4.10365272      13.83979066 
W       7.09508394       4.09634862      13.85338001 
W      11.37781800       6.56898628      13.82164048 
W       5.66389383       6.56898628      13.82164048 
W       8.52085592       6.56585813      13.85338001 
H       0.00000000       0.00000000      17.68924641 
