46
Lattice="8.305745548281743 0.0 0.0 4.152872774140872 7.1929866421815 0.0 0.0 0.0 23.042150456303634" Properties=species:S:1:pos:R:3 pbc="T T T"
Ir       8.30574555       1.59844148       7.00000000 
Ir       2.76858185       1.59844148       7.00000000 
Ir       5.53716370       1.59844148       7.00000000 
Ir       9.69003647       3.99610369       7.00000000 
Ir       4.15287277       3.99610369       7.00000000 
Ir       6.92145462       3.99610369       7.00000000 
Ir      11.07432740       6.39376590       7.00000000 
Ir       5.53716370       6.39376590       7.00000000 
Ir       8.30574555       6.39376590       7.00000000 
Ir       0.00000000       0.00000000       9.26053761 
Ir       2.76858185       0.00000000       9.26053761 
Ir       5.53716370       0.00000000       9.26053761 
Ir       1.38429092       2.39766221       9.26053761 
Ir       4.15287277       2.39766221       9.26053761 
Ir       6.92145462       2.39766221       9.26053761 
Ir       2.76858185       4.79532443       9.26053761 
Ir       5.53716370       4.79532443       9.26053761 
Ir       8.30574555       4.79532443       9.26053761 
Ir       1.38429092       0.79922074      11.52107523 
Ir       4.15287277       0.79922074      11.52107523 
Ir       6.92145462       0.79922074      11.52107523 
Ir       2.76858185       3.19688295      11.52107523 
Ir       5.53716370       3.19688295      11.52107523 
Ir       8.30574555       3.19688295      11.52107523 
Ir       4.15287277       5.59454517      11.52107523 
Ir       6.92145462       5.59454517      11.52107523 
Ir       9.69003647       5.59454517      11.52107523 
Ir      12.30739802       7.10567956      15.83584824 
Ir       7.07267492       7.10567956      15.83584824 
Ir       5.53716370       0.05145145      15.68130942 
Ir       9.69003647       2.57227637      15.83584824 
Ir       4.21877928       2.43571336      15.69331282 
Ir       6.85554811       2.43571336      15.69331282 
Ir       2.81314011       4.76959870      15.68130942 
Ir       5.53716370       4.71922214      15.69331282 
Ir       8.26118729       4.76959870      15.68130942 
Cu       8.32149791       1.58934685      13.69339074 
Cu       2.75282949       1.58934685      13.69339074 
Cu       5.53716370       1.59791384      13.60531992 
Cu       9.69003647       3.99640041      13.63179276 
Cu       4.15241583       3.99636751      13.60531992 
Cu       6.92191157       3.99636751      13.60531992 
Cu      11.07407043       6.39361755      13.63179276 
Cu       5.53716370       6.41195516      13.69339074 
Cu       8.30600251       6.39361755      13.63179276 
N       1.38429092       0.79922074      16.56263765 
