46
Lattice="8.305745548281743 0.0 0.0 4.152872774140872 7.1929866421815 0.0 0.0 0.0 23.042150456303634" Properties=species:S:1:pos:R:3 pbc="T T T"
Ir       8.30574555       1.59844148       7.00000000 
Ir       2.76858185       1.59844148       7.00000000 
Ir       5.53716370       1.59844148       7.00000000 
Ir       9.69003647       3.99610369       7.00000000 
Ir       4.15287277       3.99610369       7.00000000 
Ir       6.92145462       3.99610369       7.00000000 
Ir      11.07432740       6.39376590       7.00000000 
Ir       5.53716370       6.39376590       7.00000000 
Ir       8.30574555       6.39376590       7.00000000 
Ir       0.00000000       0.00000000       9.26053761 
Ir       2.76858185       0.00000000       9.26053761 
Ir       5.53716370       0.00000000       9.26053761 
Ir       1.38429092       2.39766221       9.26053761 
Ir       4.15287277       2.39766221       9.26053761 
Ir       6.92145462       2.39766221       9.26053761 
Ir       2.76858185       4.79532443       9.26053761 
Ir       5.53716370       4.79532443       9.26053761 
Ir       8.30574555       4.79532443       9.26053761 
Ir       1.38429092       0.79922074      11.52107523 
Ir       4.15287277       0.79922074      11.52107523 
Ir       6.92145462       0.79922074      11.52107523 
Ir       2.76858185       3.19688295      11.52107523 
Ir       5.53716370       3.19688295      11.52107523 
Ir       8.30574555       3.19688295      11.52107523 
Ir       4.15287277       5.59454517      11.52107523 
Ir       6.92145462       5.59454517      11.52107523 
Ir       9.69003647       5.59454517      11.52107523 
Ir      12.36520050       7.13905183      15.80152946 
Ir       7.01487245       7.13905183      15.80152946 
Ir       5.53716370       0.01593010      15.68546123 
Ir       9.69003647       2.50553183      15.80152946 
Ir       4.20322899       2.42673539      15.69401148 
Ir       6.87109840       2.42673539      15.69401148 
Ir       2.78237772       4.78735938      15.68546123 
Ir       5.53716370       4.73717807      15.69401148 
Ir       8.29194968       4.78735938      15.68546123 
Cu       8.31579899       1.59263712      13.67425617 
Cu       2.75852841       1.59263712      13.67425617 
Cu       5.53716370       1.59317440      13.61774064 
Cu       9.69003647       3.99836153      13.63171203 
Cu       4.14831135       3.99873723      13.61774064 
Cu       6.92601604       3.99873723      13.61774064 
Cu      11.07237205       6.39263699      13.63171203 
Cu       5.53716370       6.40537462      13.67425617 
Cu       8.30770089       6.39263699      13.63171203 
O       1.38429092       0.79922074      16.89689530 
