46
Lattice="8.478433752169561 0.0 0.0 4.239216876084781 7.342539013682256 0.0 0.0 0.0 23.230149560358235" Properties=species:S:1:pos:R:3 pbc="T T T"
Pd       8.47843375       1.63167534       7.00000000 
Pd       2.82614458       1.63167534       7.00000000 
Pd       5.65228917       1.63167534       7.00000000 
Pd       9.89150604       4.07918834       7.00000000 
Pd       4.23921688       4.07918834       7.00000000 
Pd       7.06536146       4.07918834       7.00000000 
Pd      11.30457834       6.52670135       7.00000000 
Pd       5.65228917       6.52670135       7.00000000 
Pd       8.47843375       6.52670135       7.00000000 
Pd       0.00000000       0.00000000       9.30753739 
Pd       2.82614458       0.00000000       9.30753739 
Pd       5.65228917       0.00000000       9.30753739 
Pd       1.41307229       2.44751300       9.30753739 
Pd       4.23921688       2.44751300       9.30753739 
Pd       7.06536146       2.44751300       9.30753739 
Pd       2.82614458       4.89502601       9.30753739 
Pd       5.65228917       4.89502601       9.30753739 
Pd       8.47843375       4.89502601       9.30753739 
Pd       1.41307229       0.81583767      11.61507478 
Pd       4.23921688       0.81583767      11.61507478 
Pd       7.06536146       0.81583767      11.61507478 
Pd       2.82614458       3.26335067      11.61507478 
Pd       5.65228917       3.26335067      11.61507478 
Pd       8.47843375       3.26335067      11.61507478 
Pd       4.23921688       5.71086368      11.61507478 
Pd       7.06536146       5.71086368      11.61507478 
Pd       9.89150604       5.71086368      11.61507478 
Pd      12.62927474       7.29151517      16.39615676 
Pd       7.15373735       7.29151517      16.39615676 
Pd       9.89150604       7.34099785      16.26912240 
Pd       9.89150604       2.54956069      16.39615676 
Pd       4.26902466       2.46472253      16.29792442 
Pd       7.03555368       2.46472253      16.29792442 
Pd      11.30324365       4.89579659      16.26912240 
Pd       5.65228917       4.86060695      16.29792442 
Pd       8.47976844       4.89579659      16.26912240 
Ag       8.47833070       1.63173483      13.99438877 
Ag       2.82624763       1.63173483      13.99438877 
Ag       5.65228917       1.63303704      13.95679359 
Ag       9.89150604       4.07614122      13.95915022 
Ag       4.24039614       4.07850749      13.95679359 
Ag       7.06418219       4.07850749      13.95679359 
Ag      11.30721722       6.52822491      13.95915022 
Ag       5.65228917       6.52658236      13.99438877 
Ag       8.47579487       6.52822491      13.95915022 
O       1.41307229       0.81583767      17.37466631 
