46
Lattice="8.310543974898875 0.0 0.0 4.155271987449438 7.197142201530131 0.0 0.0 0.0 23.04737432153926" Properties=species:S:1:pos:R:3 pbc="T T T"
Pd       8.31054397       1.59936493       7.00000000 
Pd       2.77018132       1.59936493       7.00000000 
Pd       5.54036265       1.59936493       7.00000000 
Pd       9.69563464       3.99841233       7.00000000 
Pd       4.15527199       3.99841233       7.00000000 
Pd       6.92545331       3.99841233       7.00000000 
Pd      11.08072530       6.39745973       7.00000000 
Pd       5.54036265       6.39745973       7.00000000 
Pd       8.31054397       6.39745973       7.00000000 
Pd       0.00000000       0.00000000       9.26184358 
Pd       2.77018132       0.00000000       9.26184358 
Pd       5.54036265       0.00000000       9.26184358 
Pd       1.38509066       2.39904740       9.26184358 
Pd       4.15527199       2.39904740       9.26184358 
Pd       6.92545331       2.39904740       9.26184358 
Pd       2.77018132       4.79809480       9.26184358 
Pd       5.54036265       4.79809480       9.26184358 
Pd       8.31054397       4.79809480       9.26184358 
Pd       1.38509066       0.79968247      11.52368716 
Pd       4.15527199       0.79968247      11.52368716 
Pd       6.92545331       0.79968247      11.52368716 
Pd       2.77018132       3.19872987      11.52368716 
Pd       5.54036265       3.19872987      11.52368716 
Pd       8.31054397       3.19872987      11.52368716 
Pd       4.15527199       5.59777727      11.52368716 
Pd       6.92545331       5.59777727      11.52368716 
Pd       9.69563464       5.59777727      11.52368716 
Pd      12.38983859       7.15327665      16.38860384 
Pd       7.00143068       7.15327665      16.38860384 
Pd       9.69563464       7.19694985      16.24946956 
Pd       9.69563464       2.48677851      16.38860384 
Pd       4.18341159       2.41529381      16.27936639 
Pd       6.89731371       2.41529381      16.27936639 
Pd      11.08055872       4.79819098      16.24946956 
Pd       5.54036265       4.76560199      16.27936639 
Pd       8.31071056       4.79819098      16.24946956 
Ag       8.31207823       1.59847913      13.94714492 
Ag       2.76864707       1.59847913      13.94714492 
Ag       5.54036265       1.60027021      13.90141495 
Ag       9.69563464       3.99514396      13.90631055 
Ag       4.15605598       3.99795970      13.90141495 
Ag       6.92466932       3.99795970      13.90141495 
Ag      11.08355580       6.39909392      13.90631055 
Ag       5.54036265       6.39923134      13.94714492 
Ag       8.30771348       6.39909392      13.90631055 
O       1.38509066       0.79968247      17.44397373 
