46
Lattice="8.394488863534217 0.0 0.0 4.197244431767109 7.269840607606193 0.0 0.0 0.0 23.138761940948747" Properties=species:S:1:pos:R:3 pbc="T T T"
Pd       8.39448886       1.61552014       7.00000000 
Pd       2.79816295       1.61552014       7.00000000 
Pd       5.59632591       1.61552014       7.00000000 
Pd       9.79357034       4.03880034       7.00000000 
Pd       4.19724443       4.03880034       7.00000000 
Pd       6.99540739       4.03880034       7.00000000 
Pd      11.19265182       6.46208054       7.00000000 
Pd       5.59632591       6.46208054       7.00000000 
Pd       8.39448886       6.46208054       7.00000000 
Pd       0.00000000       0.00000000       9.28469049 
Pd       2.79816295       0.00000000       9.28469049 
Pd       5.59632591       0.00000000       9.28469049 
Pd       1.39908148       2.42328020       9.28469049 
Pd       4.19724443       2.42328020       9.28469049 
Pd       6.99540739       2.42328020       9.28469049 
Pd       2.79816295       4.84656041       9.28469049 
Pd       5.59632591       4.84656041       9.28469049 
Pd       8.39448886       4.84656041       9.28469049 
Pd       1.39908148       0.80776007      11.56938097 
Pd       4.19724443       0.80776007      11.56938097 
Pd       6.99540739       0.80776007      11.56938097 
Pd       2.79816295       3.23104027      11.56938097 
Pd       5.59632591       3.23104027      11.56938097 
Pd       8.39448886       3.23104027      11.56938097 
Pd       4.19724443       5.65432047      11.56938097 
Pd       6.99540739       5.65432047      11.56938097 
Pd       9.79357034       5.65432047      11.56938097 
Pd       8.39518488       1.61511829      13.82303230 
Pd       2.79746694       1.61511829      13.82303230 
Pd       5.59632591       1.61275118      13.82268341 
Pd       9.79357034       4.02891164      13.86606101 
Pd       4.19484645       4.04018481      13.82268341 
Pd       6.99780537       4.04018481      13.82268341 
Pd      11.20121568       6.46702489      13.86606101 
Pd       5.59632591       6.46288423      13.82303230 
Pd       8.38592500       6.46702489      13.86606101 
Pd      12.54219948       7.24124225      16.15845204 
Pd       7.04494120       7.24124225      16.15845204 
Pd       5.59632591       0.00154011      16.11440894 
Pd       9.79357034       2.48047693      16.15845204 
Pd       4.21826478       2.43541630      16.08334159 
Pd       6.97438704       2.43541630      16.08334159 
Pd       2.79949673       4.84579035      16.11440894 
Pd       5.59632591       4.82228820      16.08334159 
Pd       8.39315509       4.84579035      16.11440894 
O       1.39908148       0.80776007      17.25318647 
