46
Lattice="8.436491006336698 0.0 0.0 4.218245503168349 7.306215530286524 0.0 0.0 0.0 23.184488082268565" Properties=species:S:1:pos:R:3 pbc="T T T"
Pt       8.43649101       1.62360345       7.00000000 
Pt       2.81216367       1.62360345       7.00000000 
Pt       5.62432734       1.62360345       7.00000000 
Pt       9.84257284       4.05900863       7.00000000 
Pt       4.21824550       4.05900863       7.00000000 
Pt       7.03040917       4.05900863       7.00000000 
Pt      11.24865468       6.49441380       7.00000000 
Pt       5.62432734       6.49441380       7.00000000 
Pt       8.43649101       6.49441380       7.00000000 
Pt       0.00000000       0.00000000       9.29612202 
Pt       2.81216367       0.00000000       9.29612202 
Pt       5.62432734       0.00000000       9.29612202 
Pt       1.40608183       2.43540518       9.29612202 
Pt       4.21824550       2.43540518       9.29612202 
Pt       7.03040917       2.43540518       9.29612202 
Pt       2.81216367       4.87081035       9.29612202 
Pt       5.62432734       4.87081035       9.29612202 
Pt       8.43649101       4.87081035       9.29612202 
Pt       1.40608183       0.81180173      11.59224404 
Pt       4.21824550       0.81180173      11.59224404 
Pt       7.03040917       0.81180173      11.59224404 
Pt       2.81216367       3.24720690      11.59224404 
Pt       5.62432734       3.24720690      11.59224404 
Pt       8.43649101       3.24720690      11.59224404 
Pt       4.21824550       5.68261208      11.59224404 
Pt       7.03040917       5.68261208      11.59224404 
Pt       9.84257284       5.68261208      11.59224404 
Pt       0.02337839       0.01349752      16.01132120 
Pt       2.78878527       0.01349752      16.01132120 
Pt       9.84257284       7.30268195      16.00595576 
Pt       1.40608183       2.40841013      16.01132120 
Pt       4.23359052       2.44426463      16.00034261 
Pt       7.01506415       2.44426463      16.00034261 
Pt      11.24559451       4.87257714      16.00595576 
Pt       5.62432734       4.85309145      16.00034261 
Pt       8.43955117       4.87257714      16.00595576 
Mo       8.43831106       1.62255264      13.78403386 
Mo       2.81034362       1.62255264      13.78403386 
Mo       5.62432734       1.61881267      13.80115100 
Mo       9.84257284       4.04195969      13.81321786 
Mo       4.21409656       4.06140402      13.80115100 
Mo       7.03455811       4.06140402      13.80115100 
Mo      11.26341948       6.50293827      13.81321786 
Mo       5.62432734       6.49651542      13.78403386 
Mo       8.42172620       6.50293827      13.81321786 
O       1.40608183       0.81180173      17.49660043 
