46
Lattice="8.235898954649699 0.0 0.0 4.117949477324849 7.13249771772834 0.0 0.0 0.0 22.966111116450286" Properties=species:S:1:pos:R:3 pbc="T T T"
Rh       8.23589895       1.58499949       7.00000000 
Rh       2.74529965       1.58499949       7.00000000 
Rh       5.49059930       1.58499949       7.00000000 
Rh       9.60854878       3.96249873       7.00000000 
Rh       4.11794948       3.96249873       7.00000000 
Rh       6.86324913       3.96249873       7.00000000 
Rh      10.98119861       6.33999797       7.00000000 
Rh       5.49059930       6.33999797       7.00000000 
Rh       8.23589895       6.33999797       7.00000000 
Rh       0.00000000       0.00000000       9.24152778 
Rh       2.74529965       0.00000000       9.24152778 
Rh       5.49059930       0.00000000       9.24152778 
Rh       1.37264983       2.37749924       9.24152778 
Rh       4.11794948       2.37749924       9.24152778 
Rh       6.86324913       2.37749924       9.24152778 
Rh       2.74529965       4.75499848       9.24152778 
Rh       5.49059930       4.75499848       9.24152778 
Rh       8.23589895       4.75499848       9.24152778 
Rh       1.37264983       0.79249975      11.48305556 
Rh       4.11794948       0.79249975      11.48305556 
Rh       6.86324913       0.79249975      11.48305556 
Rh       2.74529965       3.16999899      11.48305556 
Rh       5.49059930       3.16999899      11.48305556 
Rh       8.23589895       3.16999899      11.48305556 
Rh       4.11794948       5.54749822      11.48305556 
Rh       6.86324913       5.54749822      11.48305556 
Rh       9.60854878       5.54749822      11.48305556 
Rh      12.31719971       7.11133857      15.69181914 
Rh       6.89989785       7.11133857      15.69181914 
Rh       5.49059930       0.00352145      15.65475712 
Rh       9.60854878       2.41981754      15.69181914 
Rh       4.12775359       2.38315964      15.66316652 
Rh       6.85344502       2.38315964      15.66316652 
Rh       2.74834932       4.75323775      15.65475712 
Rh       5.49059930       4.74367767      15.66316652 
Rh       8.23284929       4.75323775      15.65475712 
Cu       8.24244096       1.58122246      13.61284852 
Cu       2.73875764       1.58122246      13.61284852 
Cu       5.49059930       1.58488959      13.59092327 
Cu       9.60854878       3.96933800      13.58981381 
Cu       4.11785430       3.96255368      13.59092327 
Cu       6.86334430       3.96255368      13.59092327 
Cu      10.97527563       6.33657834      13.58981381 
Cu       5.49059930       6.34755203      13.61284852 
Cu       8.24182194       6.33657834      13.58981381 
H       1.37264983       0.79249975      16.54892688 
