46
Lattice="8.394488863534217 0.0 0.0 4.197244431767109 7.269840607606193 0.0 0.0 0.0 23.138761940948747" Properties=species:S:1:pos:R:3 pbc="T T T"
Pd       8.39448886       1.61552014       7.00000000 
Pd       2.79816295       1.61552014       7.00000000 
Pd       5.59632591       1.61552014       7.00000000 
Pd       9.79357034       4.03880034       7.00000000 
Pd       4.19724443       4.03880034       7.00000000 
Pd       6.99540739       4.03880034       7.00000000 
Pd      11.19265182       6.46208054       7.00000000 
Pd       5.59632591       6.46208054       7.00000000 
Pd       8.39448886       6.46208054       7.00000000 
Pd       0.00000000       0.00000000       9.28469049 
Pd       2.79816295       0.00000000       9.28469049 
Pd       5.59632591       0.00000000       9.28469049 
Pd       1.39908148       2.42328020       9.28469049 
Pd       4.19724443       2.42328020       9.28469049 
Pd       6.99540739       2.42328020       9.28469049 
Pd       2.79816295       4.84656041       9.28469049 
Pd       5.59632591       4.84656041       9.28469049 
Pd       8.39448886       4.84656041       9.28469049 
Pd       1.39908148       0.80776007      11.56938097 
Pd       4.19724443       0.80776007      11.56938097 
Pd       6.99540739       0.80776007      11.56938097 
Pd       2.79816295       3.23104027      11.56938097 
Pd       5.59632591       3.23104027      11.56938097 
Pd       8.39448886       3.23104027      11.56938097 
Pd       4.19724443       5.65432047      11.56938097 
Pd       6.99540739       5.65432047      11.56938097 
Pd       9.79357034       5.65432047      11.56938097 
Pd      12.56411455       7.25389492      15.73667812 
Pd       7.02302613       7.25389492      15.73667812 
Pd       9.79357034       7.26222311      15.59914803 
Pd       9.79357034       2.45517158      15.73667812 
Pd       4.21258621       2.43213778      15.63718144 
Pd       6.98006561       2.43213778      15.63718144 
Pd      11.18605487       4.85036915      15.59914803 
Pd       5.59632591       4.82884524      15.63718144 
Pd       8.40108581       4.85036915      15.59914803 
Co       8.39966718       1.61253043      13.61506635 
Co       2.79298464       1.61253043      13.61506635 
Co       5.59632591       1.62153034      13.60195516 
Co       9.79357034       3.95250569      13.61344538 
Co       4.20244942       4.03579524      13.60195516 
Co       6.99020240       4.03579524      13.60195516 
Co      11.26738518       6.50522786      13.61344538 
Co       5.59632591       6.46805995      13.61506635 
Co       8.31975551       6.50522786      13.61344538 
O       1.39908148       0.80776007      16.95353247 
