46
Lattice="8.520855916400066 0.0 0.0 4.260427958200033 7.37927768558939 0.0 0.0 0.0 23.276332963091257" Properties=species:S:1:pos:R:3 pbc="T T T"
Pt       8.52085592       1.63983949       7.00000000 
Pt       2.84028531       1.63983949       7.00000000 
Pt       5.68057061       1.63983949       7.00000000 
Pt       9.94099857       4.09959871       7.00000000 
Pt       4.26042796       4.09959871       7.00000000 
Pt       7.10071326       4.09959871       7.00000000 
Pt      11.36114122       6.55935794       7.00000000 
Pt       5.68057061       6.55935794       7.00000000 
Pt       8.52085592       6.55935794       7.00000000 
Pt       0.00000000       0.00000000       9.31908324 
Pt       2.84028531       0.00000000       9.31908324 
Pt       5.68057061       0.00000000       9.31908324 
Pt       1.42014265       2.45975923       9.31908324 
Pt       4.26042796       2.45975923       9.31908324 
Pt       7.10071326       2.45975923       9.31908324 
Pt       2.84028531       4.91951846       9.31908324 
Pt       5.68057061       4.91951846       9.31908324 
Pt       8.52085592       4.91951846       9.31908324 
Pt       1.42014265       0.81991974      11.63816648 
Pt       4.26042796       0.81991974      11.63816648 
Pt       7.10071326       0.81991974      11.63816648 
Pt       2.84028531       3.27967897      11.63816648 
Pt       5.68057061       3.27967897      11.63816648 
Pt       8.52085592       3.27967897      11.63816648 
Pt       4.26042796       5.73943820      11.63816648 
Pt       7.10071326       5.73943820      11.63816648 
Pt       9.94099857       5.73943820      11.63816648 
Pt       0.00000000       0.00000000      16.22532841 
Pt       7.10918702       7.37826721      16.12005679 
Pt       9.93252481       7.37826721      16.12005679 
Pt       9.94436035       2.46760296      16.12005679 
Pt       4.26042796       2.45975923      16.11421067 
Pt       7.09735149       2.46760296      16.12005679 
Pt      11.35602924       4.91268521      16.12005679 
Pt       5.68568259       4.91268521      16.12005679 
Pt       8.52085592       4.91951846      16.11883665 
Pd       8.52085592       1.62500757      13.88080705 
Pd       2.83765307       1.63831976      13.85893073 
Pd       5.68320285       1.63831976      13.85893073 
Pd       9.94164197       4.09922725      13.85782000 
Pd       4.26042796       4.10263816      13.85893073 
Pd       7.10006987       4.09922725      13.85782000 
Pd      11.37398604       6.56677390      13.88080705 
Pd       5.66772579       6.56677390      13.88080705 
Pd       8.52085592       6.56010087      13.85782000 
H       0.00000000       0.00000000      17.78265195 
