46
Lattice="8.154355400643267 0.0 0.0 4.077177700321633 7.061878928443901 0.0 0.0 0.0 22.877337739059687" Properties=species:S:1:pos:R:3 pbc="T T T"
Rh       8.15435540       1.56930643       7.00000000 
Rh       2.71811847       1.56930643       7.00000000 
Rh       5.43623693       1.56930643       7.00000000 
Rh       9.51341463       3.92326607       7.00000000 
Rh       4.07717770       3.92326607       7.00000000 
Rh       6.79529617       3.92326607       7.00000000 
Rh      10.87247387       6.27722571       7.00000000 
Rh       5.43623693       6.27722571       7.00000000 
Rh       8.15435540       6.27722571       7.00000000 
Rh       0.00000000       0.00000000       9.21933443 
Rh       2.71811847       0.00000000       9.21933443 
Rh       5.43623693       0.00000000       9.21933443 
Rh       1.35905923       2.35395964       9.21933443 
Rh       4.07717770       2.35395964       9.21933443 
Rh       6.79529617       2.35395964       9.21933443 
Rh       2.71811847       4.70791929       9.21933443 
Rh       5.43623693       4.70791929       9.21933443 
Rh       8.15435540       4.70791929       9.21933443 
Rh       1.35905923       0.78465321      11.43866887 
Rh       4.07717770       0.78465321      11.43866887 
Rh       6.79529617       0.78465321      11.43866887 
Rh       2.71811847       3.13861286      11.43866887 
Rh       5.43623693       3.13861286      11.43866887 
Rh       8.15435540       3.13861286      11.43866887 
Rh       4.07717770       5.49257250      11.43866887 
Rh       6.79529617       5.49257250      11.43866887 
Rh       9.51341463       5.49257250      11.43866887 
Rh      12.19201005       7.03906029      16.08149250 
Rh       6.83481922       7.03906029      16.08149250 
Rh       5.43623693       0.00781675      15.98839485 
Rh       9.51341463       2.39959693      16.08149250 
Rh       4.11194447       2.37403225      15.97551280 
Rh       6.76052940       2.37403225      15.97551280 
Rh       2.72488797       4.70401091      15.98839485 
Rh       5.43623693       4.66777408      15.97551280 
Rh       8.14758590       4.70401091      15.98839485 
Pt       8.15667873       1.56796506      13.72647669 
Pt       2.71579514       1.56796506      13.72647669 
Pt       5.43623693       1.56665266      13.71835438 
Pt       9.51341463       3.91471860      13.74656452 
Pt       4.07487947       3.92459296      13.71835438 
Pt       6.79759440       3.92459296      13.71835438 
Pt      10.87987620       6.28149945      13.74656452 
Pt       5.43623693       6.27990846      13.72647669 
Pt       8.14695307       6.28149945      13.74656452 
O       1.35905923       0.78465321      17.23278464 
