46
Lattice="8.436491006336698 0.0 0.0 4.218245503168349 7.306215530286524 0.0 0.0 0.0 23.184488082268565" Properties=species:S:1:pos:R:3 pbc="T T T"
Pt       8.43649101       1.62360345       7.00000000 
Pt       2.81216367       1.62360345       7.00000000 
Pt       5.62432734       1.62360345       7.00000000 
Pt       9.84257284       4.05900863       7.00000000 
Pt       4.21824550       4.05900863       7.00000000 
Pt       7.03040917       4.05900863       7.00000000 
Pt      11.24865468       6.49441380       7.00000000 
Pt       5.62432734       6.49441380       7.00000000 
Pt       8.43649101       6.49441380       7.00000000 
Pt       0.00000000       0.00000000       9.29612202 
Pt       2.81216367       0.00000000       9.29612202 
Pt       5.62432734       0.00000000       9.29612202 
Pt       1.40608183       2.43540518       9.29612202 
Pt       4.21824550       2.43540518       9.29612202 
Pt       7.03040917       2.43540518       9.29612202 
Pt       2.81216367       4.87081035       9.29612202 
Pt       5.62432734       4.87081035       9.29612202 
Pt       8.43649101       4.87081035       9.29612202 
Pt       1.40608183       0.81180173      11.59224404 
Pt       4.21824550       0.81180173      11.59224404 
Pt       7.03040917       0.81180173      11.59224404 
Pt       2.81216367       3.24720690      11.59224404 
Pt       5.62432734       3.24720690      11.59224404 
Pt       8.43649101       3.24720690      11.59224404 
Pt       4.21824550       5.68261208      11.59224404 
Pt       7.03040917       5.68261208      11.59224404 
Pt       9.84257284       5.68261208      11.59224404 
Pt      12.53326844       7.23608591      16.50819074 
Pt       7.15187724       7.23608591      16.50819074 
Pt       5.62432734       0.00210141      16.40113693 
Pt       9.84257284       2.57566442      16.50819074 
Pt       4.25090008       2.45425830      16.39253065 
Pt       6.99775460       2.45425830      16.39253065 
Pt       2.81398354       4.86975965      16.40113693 
Pt       5.62432734       4.83310410      16.39253065 
Pt       8.43467114       4.86975965      16.40113693 
Au       8.44267525       1.62003298      14.02904595 
Au       2.80597942       1.62003298      14.02904595 
Au       5.62432734       1.62183541      13.97717032 
Au       9.84257284       4.05543641      14.00204375 
Au       4.21671434       4.05989265      13.97717032 
Au       7.03194034       4.05989265      13.97717032 
Au      11.25174831       6.49619991      14.00204375 
Au       5.62432734       6.50155475      14.02904595 
Au       8.43339738       6.49619991      14.00204375 
O       1.40608183       0.81180173      17.50825149 
