46
Lattice="8.141275339404878 0.0 0.0 4.070637669702439 7.0505512631284 0.0 0.0 0.0 22.863097972020395" Properties=species:S:1:pos:R:3 pbc="T T T"
Ir       8.14127534       1.56678917       7.00000000 
Ir       2.71375845       1.56678917       7.00000000 
Ir       5.42751689       1.56678917       7.00000000 
Ir       9.49815456       3.91697292       7.00000000 
Ir       4.07063767       3.91697292       7.00000000 
Ir       6.78439612       3.91697292       7.00000000 
Ir      10.85503379       6.26715668       7.00000000 
Ir       5.42751689       6.26715668       7.00000000 
Ir       8.14127534       6.26715668       7.00000000 
Ir       0.00000000       0.00000000       9.21577449 
Ir       2.71375845       0.00000000       9.21577449 
Ir       5.42751689       0.00000000       9.21577449 
Ir       1.35687922       2.35018375       9.21577449 
Ir       4.07063767       2.35018375       9.21577449 
Ir       6.78439612       2.35018375       9.21577449 
Ir       2.71375845       4.70036751       9.21577449 
Ir       5.42751689       4.70036751       9.21577449 
Ir       8.14127534       4.70036751       9.21577449 
Ir       1.35687922       0.78339458      11.43154899 
Ir       4.07063767       0.78339458      11.43154899 
Ir       6.78439612       0.78339458      11.43154899 
Ir       2.71375845       3.13357834      11.43154899 
Ir       5.42751689       3.13357834      11.43154899 
Ir       8.14127534       3.13357834      11.43154899 
Ir       4.07063767       5.48376209      11.43154899 
Ir       6.78439612       5.48376209      11.43154899 
Ir       9.49815456       5.48376209      11.43154899 
Ir       0.00000000       0.00000000      15.69184201 
Ir       6.79089749       7.04969623      15.53291462 
Ir       9.49165319       7.04969623      15.53291462 
Ir       9.50066477       2.35624162      15.53291462 
Ir       4.07063767       2.35018375      15.52870353 
Ir       6.78188591       2.35624162      15.53291462 
Ir      10.85104262       4.69516467      15.53291462 
Ir       5.43150806       4.69516467      15.53291462 
Ir       8.14127534       4.70036751      15.53923945 
Ni       8.14127534       1.55517694      13.52438435 
Ni       2.70578202       1.56218398      13.51069674 
Ni       5.43549332       1.56218398      13.51069674 
Ni       9.50291183       3.91422631      13.51632969 
Ni       4.07063767       3.92618331      13.51069674 
Ni       6.77963885       3.91422631      13.51632969 
Ni      10.86509028       6.27296280      13.52438435 
Ni       5.41746040       6.27296280      13.52438435 
Ni       8.14127534       6.27264990      13.51632969 
H       0.00000000       0.00000000      17.28719266 
