46
Lattice="8.387980652720177 0.0 0.0 4.193990326360089 7.264204331708049 0.0 0.0 0.0 23.131676698445254" Properties=species:S:1:pos:R:3 pbc="T T T"
Ir       8.38798065       1.61426763       7.00000000 
Ir       2.79599355       1.61426763       7.00000000 
Ir       5.59198710       1.61426763       7.00000000 
Ir       9.78597743       4.03566907       7.00000000 
Ir       4.19399033       4.03566907       7.00000000 
Ir       6.98998388       4.03566907       7.00000000 
Ir      11.18397420       6.45707052       7.00000000 
Ir       5.59198710       6.45707052       7.00000000 
Ir       8.38798065       6.45707052       7.00000000 
Ir       0.00000000       0.00000000       9.28291917 
Ir       2.79599355       0.00000000       9.28291917 
Ir       5.59198710       0.00000000       9.28291917 
Ir       1.39799678       2.42140144       9.28291917 
Ir       4.19399033       2.42140144       9.28291917 
Ir       6.98998388       2.42140144       9.28291917 
Ir       2.79599355       4.84280289       9.28291917 
Ir       5.59198710       4.84280289       9.28291917 
Ir       8.38798065       4.84280289       9.28291917 
Ir       1.39799678       0.80713381      11.56583835 
Ir       4.19399033       0.80713381      11.56583835 
Ir       6.98998388       0.80713381      11.56583835 
Ir       2.79599355       3.22853526      11.56583835 
Ir       5.59198710       3.22853526      11.56583835 
Ir       8.38798065       3.22853526      11.56583835 
Ir       4.19399033       5.64993670      11.56583835 
Ir       6.98998388       5.64993670      11.56583835 
Ir       9.78597743       5.64993670      11.56583835 
Ir      12.46444872       7.19635283      16.37225342 
Ir       7.10750613       7.19635283      16.37225342 
Ir       5.59198710       0.04307211      16.27259533 
Ir       9.78597743       2.55710446      16.37225342 
Ir       4.25430628       2.45622487      16.26446349 
Ir       6.92966793       2.45622487      16.26446349 
Ir       2.83329509       4.82126683      16.27259533 
Ir       5.59198710       4.77315603      16.26446349 
Ir       8.35067911       4.82126683      16.27259533 
Au       8.39488570       1.61028100      13.97657680 
Au       2.78908851       1.61028100      13.97657680 
Au       5.59198710       1.61097245      13.89936832 
Au       9.78597743       4.03266957      13.93455739 
Au       4.19113662       4.03731666      13.89936832 
Au       6.99283758       4.03731666      13.89936832 
Au      11.18657185       6.45857027      13.93455739 
Au       5.59198710       6.46504377      13.97657680 
Au       8.38538300       6.45857027      13.93455739 
O       1.39799678       0.80713381      17.40274632 
