46
Lattice="8.562378640804901 0.0 0.0 4.281189320402451 7.415237419758317 0.0 0.0 0.0 23.321537179767724" Properties=species:S:1:pos:R:3 pbc="T T T"
Pd       8.56237864       1.64783054       7.00000000 
Pd       2.85412621       1.64783054       7.00000000 
Pd       5.70825243       1.64783054       7.00000000 
Pd       9.98944175       4.11957634       7.00000000 
Pd       4.28118932       4.11957634       7.00000000 
Pd       7.13531553       4.11957634       7.00000000 
Pd      11.41650485       6.59132215       7.00000000 
Pd       5.70825243       6.59132215       7.00000000 
Pd       8.56237864       6.59132215       7.00000000 
Pd       0.00000000       0.00000000       9.33038429 
Pd       2.85412621       0.00000000       9.33038429 
Pd       5.70825243       0.00000000       9.33038429 
Pd       1.42706311       2.47174581       9.33038429 
Pd       4.28118932       2.47174581       9.33038429 
Pd       7.13531553       2.47174581       9.33038429 
Pd       2.85412621       4.94349161       9.33038429 
Pd       5.70825243       4.94349161       9.33038429 
Pd       8.56237864       4.94349161       9.33038429 
Pd       1.42706311       0.82391527      11.66076859 
Pd       4.28118932       0.82391527      11.66076859 
Pd       7.13531553       0.82391527      11.66076859 
Pd       2.85412621       3.29566108      11.66076859 
Pd       5.70825243       3.29566108      11.66076859 
Pd       8.56237864       3.29566108      11.66076859 
Pd       4.28118932       5.76740688      11.66076859 
Pd       7.13531553       5.76740688      11.66076859 
Pd       9.98944175       5.76740688      11.66076859 
Pd      12.82790704       7.40619558      15.70211480 
Pd       7.13531553       7.31095813      15.84800317 
Pd      10.00510267       7.40619558      15.70211480 
Pd       9.89913323       2.52388545      15.84800317 
Pd       4.37149783       2.52388545      15.84800317 
Pd       7.13531553       2.47466309      15.72697925 
Pd      11.41650485       4.96157529      15.70211480 
Pd       5.71077887       4.94203297      15.72697925 
Pd       8.55985220       4.94203297      15.72697925 
Fe       8.57268734       1.66761731      13.69663776 
Fe       2.85412621       1.64783054      13.72059821 
Fe       5.69794372       1.66761731      13.69663776 
Fe       9.97746026       4.10075536      13.69663776 
Fe       4.29317081       4.10075536      13.69663776 
Fe       7.13531553       4.11957634      13.69830150 
Fe      11.41650485       6.59132215      13.67974868 
Fe       5.73054262       6.59035637      13.69663776 
Fe       8.54008845       6.59035637      13.69663776 
C       2.85412621       1.64783054      16.57157789 
