46
Lattice="8.562378640804901 0.0 0.0 4.281189320402451 7.415237419758317 0.0 0.0 0.0 23.321537179767724" Properties=species:S:1:pos:R:3 pbc="T T T"
Pd       8.56237864       1.64783054       7.00000000 
Pd       2.85412621       1.64783054       7.00000000 
Pd       5.70825243       1.64783054       7.00000000 
Pd       9.98944175       4.11957634       7.00000000 
Pd       4.28118932       4.11957634       7.00000000 
Pd       7.13531553       4.11957634       7.00000000 
Pd      11.41650485       6.59132215       7.00000000 
Pd       5.70825243       6.59132215       7.00000000 
Pd       8.56237864       6.59132215       7.00000000 
Pd       0.00000000       0.00000000       9.33038429 
Pd       2.85412621       0.00000000       9.33038429 
Pd       5.70825243       0.00000000       9.33038429 
Pd       1.42706311       2.47174581       9.33038429 
Pd       4.28118932       2.47174581       9.33038429 
Pd       7.13531553       2.47174581       9.33038429 
Pd       2.85412621       4.94349161       9.33038429 
Pd       5.70825243       4.94349161       9.33038429 
Pd       8.56237864       4.94349161       9.33038429 
Pd       1.42706311       0.82391527      11.66076859 
Pd       4.28118932       0.82391527      11.66076859 
Pd       7.13531553       0.82391527      11.66076859 
Pd       2.85412621       3.29566108      11.66076859 
Pd       5.70825243       3.29566108      11.66076859 
Pd       8.56237864       3.29566108      11.66076859 
Pd       4.28118932       5.76740688      11.66076859 
Pd       7.13531553       5.76740688      11.66076859 
Pd       9.98944175       5.76740688      11.66076859 
Pd      12.82847819       7.40652534      15.78440850 
Pd       7.15040530       7.40652534      15.78440850 
Pd       9.98944175       7.40972785      15.70365358 
Pd       9.98944175       2.48916997      15.78440850 
Pd       4.28881641       2.47614931      15.70102525 
Pd       7.12768845       2.47614931      15.70102525 
Pd      11.41173343       4.94624640      15.70365358 
Pd       5.70825243       4.93468461      15.70102525 
Pd       8.56715007       4.94624640      15.70365358 
Fe       8.59397319       1.62958942      13.71829910 
Fe       2.82253167       1.62958942      13.71829910 
Fe       5.70825243       1.63678415      13.68744161 
Fe       9.98944175       4.12200230      13.68828780 
Fe       4.27162287       4.12509954      13.68744161 
Fe       7.14488198       4.12509954      13.68744161 
Fe      11.41440391       6.59010917      13.68828780 
Fe       5.70825243       6.62780439      13.71829910 
Fe       8.56447958       6.59010917      13.68828780 
H       1.42706311       0.82391527      16.51974114 
