46
Lattice="8.436491006336698 0.0 0.0 4.218245503168349 7.306215530286524 0.0 0.0 0.0 23.184488082268565" Properties=species:S:1:pos:R:3 pbc="T T T"
Pt       8.43649101       1.62360345       7.00000000 
Pt       2.81216367       1.62360345       7.00000000 
Pt       5.62432734       1.62360345       7.00000000 
Pt       9.84257284       4.05900863       7.00000000 
Pt       4.21824550       4.05900863       7.00000000 
Pt       7.03040917       4.05900863       7.00000000 
Pt      11.24865468       6.49441380       7.00000000 
Pt       5.62432734       6.49441380       7.00000000 
Pt       8.43649101       6.49441380       7.00000000 
Pt       0.00000000       0.00000000       9.29612202 
Pt       2.81216367       0.00000000       9.29612202 
Pt       5.62432734       0.00000000       9.29612202 
Pt       1.40608183       2.43540518       9.29612202 
Pt       4.21824550       2.43540518       9.29612202 
Pt       7.03040917       2.43540518       9.29612202 
Pt       2.81216367       4.87081035       9.29612202 
Pt       5.62432734       4.87081035       9.29612202 
Pt       8.43649101       4.87081035       9.29612202 
Pt       1.40608183       0.81180173      11.59224404 
Pt       4.21824550       0.81180173      11.59224404 
Pt       7.03040917       0.81180173      11.59224404 
Pt       2.81216367       3.24720690      11.59224404 
Pt       5.62432734       3.24720690      11.59224404 
Pt       8.43649101       3.24720690      11.59224404 
Pt       4.21824550       5.68261208      11.59224404 
Pt       7.03040917       5.68261208      11.59224404 
Pt       9.84257284       5.68261208      11.59224404 
Pt      12.50469314       7.21958795      15.81247669 
Pt       7.18045255       7.21958795      15.81247669 
Pt       9.84257284       7.30499241      15.65409212 
Pt       9.84257284       2.60866034      15.81247669 
Pt       4.24165279       2.44891938      15.67954585 
Pt       7.00700188       2.44891938      15.67954585 
Pt      11.24759542       4.87142192      15.65409212 
Pt       5.62432734       4.84378194      15.67954585 
Pt       8.43755026       4.87142192      15.65409212 
Co       8.44777634       1.61708786      13.65218926 
Co       2.80087833       1.61708786      13.65218926 
Co       5.62432734       1.62591374      13.62454074 
Co       9.84257284       4.03196855      13.61755240 
Co       4.22024627       4.05785348      13.62454074 
Co       7.02840840       4.05785348      13.62454074 
Co      11.27207207       6.50793384      13.61755240 
Co       5.62432734       6.50744499      13.65218926 
Co       8.41307361       6.50793384      13.61755240 
C       1.40608183       0.81180173      16.43039920 
