46
Lattice="8.226599086263533 0.0 0.0 4.113299543131767 7.12444379545407 0.0 0.0 0.0 22.955986702129774" Properties=species:S:1:pos:R:3 pbc="T T T"
Pd       8.22659909       1.58320973       7.00000000 
Pd       2.74219970       1.58320973       7.00000000 
Pd       5.48439939       1.58320973       7.00000000 
Pd       9.59769893       3.95802433       7.00000000 
Pd       4.11329954       3.95802433       7.00000000 
Pd       6.85549924       3.95802433       7.00000000 
Pd      10.96879878       6.33283893       7.00000000 
Pd       5.48439939       6.33283893       7.00000000 
Pd       8.22659909       6.33283893       7.00000000 
Pd       0.00000000       0.00000000       9.23899668 
Pd       2.74219970       0.00000000       9.23899668 
Pd       5.48439939       0.00000000       9.23899668 
Pd       1.37109985       2.37481460       9.23899668 
Pd       4.11329954       2.37481460       9.23899668 
Pd       6.85549924       2.37481460       9.23899668 
Pd       2.74219970       4.74962920       9.23899668 
Pd       5.48439939       4.74962920       9.23899668 
Pd       8.22659909       4.74962920       9.23899668 
Pd       1.37109985       0.79160487      11.47799335 
Pd       4.11329954       0.79160487      11.47799335 
Pd       6.85549924       0.79160487      11.47799335 
Pd       2.74219970       3.16641946      11.47799335 
Pd       5.48439939       3.16641946      11.47799335 
Pd       8.22659909       3.16641946      11.47799335 
Pd       4.11329954       5.54123406      11.47799335 
Pd       6.85549924       5.54123406      11.47799335 
Pd       9.59769893       5.54123406      11.47799335 
Pd      12.31001642       7.10719129      16.25583825 
Pd       6.88538145       7.10719129      16.25583825 
Pd       5.48439939       0.00487573      16.14169938 
Pd       9.59769893       2.40931961      16.25583825 
Pd       4.13342815       2.38643586      16.11177602 
Pd       6.83537063       2.38643586      16.11177602 
Pd       2.74642220       4.74719133      16.14169938 
Pd       5.48439939       4.72638668      16.11177602 
Pd       8.22237658       4.74719133      16.14169938 
Pt       8.22910512       1.58176287      13.80934879 
Pt       2.73969366       1.58176287      13.80934879 
Pt       5.48439939       1.58050207      13.79185233 
Pt       9.59769893       3.94939281      13.83996120 
Pt       4.11095464       3.95937816      13.79185233 
Pt       6.85784414       3.95937816      13.79185233 
Pt      10.97627390       6.33715469      13.83996120 
Pt       5.48439939       6.33573264      13.80934879 
Pt       8.21912397       6.33715469      13.83996120 
N       1.37109985       0.79160487      17.25223404 
