46
Lattice="8.226599086263533 0.0 0.0 4.113299543131767 7.12444379545407 0.0 0.0 0.0 22.955986702129774" Properties=species:S:1:pos:R:3 pbc="T T T"
Pd       8.22659909       1.58320973       7.00000000 
Pd       2.74219970       1.58320973       7.00000000 
Pd       5.48439939       1.58320973       7.00000000 
Pd       9.59769893       3.95802433       7.00000000 
Pd       4.11329954       3.95802433       7.00000000 
Pd       6.85549924       3.95802433       7.00000000 
Pd      10.96879878       6.33283893       7.00000000 
Pd       5.48439939       6.33283893       7.00000000 
Pd       8.22659909       6.33283893       7.00000000 
Pd       0.00000000       0.00000000       9.23899668 
Pd       2.74219970       0.00000000       9.23899668 
Pd       5.48439939       0.00000000       9.23899668 
Pd       1.37109985       2.37481460       9.23899668 
Pd       4.11329954       2.37481460       9.23899668 
Pd       6.85549924       2.37481460       9.23899668 
Pd       2.74219970       4.74962920       9.23899668 
Pd       5.48439939       4.74962920       9.23899668 
Pd       8.22659909       4.74962920       9.23899668 
Pd       1.37109985       0.79160487      11.47799335 
Pd       4.11329954       0.79160487      11.47799335 
Pd       6.85549924       0.79160487      11.47799335 
Pd       2.74219970       3.16641946      11.47799335 
Pd       5.48439939       3.16641946      11.47799335 
Pd       8.22659909       3.16641946      11.47799335 
Pd       4.11329954       5.54123406      11.47799335 
Pd       6.85549924       5.54123406      11.47799335 
Pd       9.59769893       5.54123406      11.47799335 
Pd      12.30501278       7.10430244      16.18816296 
Pd       6.89038509       7.10430244      16.18816296 
Pd       5.48439939       0.00348816      16.17090544 
Pd       9.59769893       2.41509731      16.18816296 
Pd       4.12779323       2.38318254      16.11568703 
Pd       6.84100555       2.38318254      16.11568703 
Pd       2.74522053       4.74788512      16.17090544 
Pd       5.48439939       4.73289332      16.11568703 
Pd       8.22357825       4.74788512      16.17090544 
Pt       8.22667489       1.58316596      13.78851681 
Pt       2.74212389       1.58316596      13.78851681 
Pt       5.48439939       1.57932104      13.79663657 
Pt       9.59769893       3.95068779      13.86173328 
Pt       4.10993184       3.95996868      13.79663657 
Pt       6.85886695       3.95996868      13.79663657 
Pt      10.97515241       6.33650720      13.86173328 
Pt       5.48439939       6.33292646      13.78851681 
Pt       8.22024546       6.33650720      13.86173328 
O       1.37109985       0.79160487      17.37461758 
