46
Lattice="8.267761186209963 0.0 0.0 4.133880593104982 7.160091219680793 0.0 0.0 0.0 23.000798320623197" Properties=species:S:1:pos:R:3 pbc="T T T"
Pt       8.26776119       1.59113138       7.00000000 
Pt       2.75592040       1.59113138       7.00000000 
Pt       5.51184079       1.59113138       7.00000000 
Pt       9.64572138       3.97782846       7.00000000 
Pt       4.13388059       3.97782846       7.00000000 
Pt       6.88980099       3.97782846       7.00000000 
Pt      11.02368158       6.36452553       7.00000000 
Pt       5.51184079       6.36452553       7.00000000 
Pt       8.26776119       6.36452553       7.00000000 
Pt       0.00000000       0.00000000       9.25019958 
Pt       2.75592040       0.00000000       9.25019958 
Pt       5.51184079       0.00000000       9.25019958 
Pt       1.37796020       2.38669707       9.25019958 
Pt       4.13388059       2.38669707       9.25019958 
Pt       6.88980099       2.38669707       9.25019958 
Pt       2.75592040       4.77339415       9.25019958 
Pt       5.51184079       4.77339415       9.25019958 
Pt       8.26776119       4.77339415       9.25019958 
Pt       1.37796020       0.79556569      11.50039916 
Pt       4.13388059       0.79556569      11.50039916 
Pt       6.88980099       0.79556569      11.50039916 
Pt       2.75592040       3.18226276      11.50039916 
Pt       5.51184079       3.18226276      11.50039916 
Pt       8.26776119       3.18226276      11.50039916 
Pt       4.13388059       5.56895984      11.50039916 
Pt       6.88980099       5.56895984      11.50039916 
Pt       9.64572138       5.56895984      11.50039916 
Pt       0.00000000       0.00000000      15.98869418 
Pt       6.89362132       7.15842779      15.89295148 
Pt       9.64190105       7.15842779      15.89295148 
Pt       9.64619098       2.39083729      15.89295148 
Pt       4.13388059       2.38669707      15.89449756 
Pt       6.88933139       2.39083729      15.89295148 
Pt      11.02033085       4.77091736      15.89295148 
Pt       5.51519153       4.77091736      15.89295148 
Pt       8.26776119       4.77339415      15.90161177 
Ru       8.26776119       1.56828764      13.67449176 
Ru       2.75023373       1.58784818      13.66960583 
Ru       5.51752746       1.58784818      13.66960583 
Ru       9.64814374       3.97642991      13.67884379 
Ru       4.13388059       3.98439485      13.66960583 
Ru       6.88737863       3.97642991      13.67884379 
Ru      11.04346485       6.37594740      13.67449176 
Ru       5.49205753       6.37594740      13.67449176 
Ru       8.26776119       6.36732263      13.67884379 
H       0.00000000       0.00000000      17.57447647 
