46
Lattice="8.223510443843312 0.0 0.0 4.111755221921656 7.121768952654951 0.0 0.0 0.0 22.952624214162014" Properties=species:S:1:pos:R:3 pbc="T T T"
Ir       8.22351044       1.58261532       7.00000000 
Ir       2.74117015       1.58261532       7.00000000 
Ir       5.48234030       1.58261532       7.00000000 
Ir       9.59409552       3.95653831       7.00000000 
Ir       4.11175522       3.95653831       7.00000000 
Ir       6.85292537       3.95653831       7.00000000 
Ir      10.96468059       6.33046129       7.00000000 
Ir       5.48234030       6.33046129       7.00000000 
Ir       8.22351044       6.33046129       7.00000000 
Ir       0.00000000       0.00000000       9.23815605 
Ir       2.74117015       0.00000000       9.23815605 
Ir       5.48234030       0.00000000       9.23815605 
Ir       1.37058507       2.37392298       9.23815605 
Ir       4.11175522       2.37392298       9.23815605 
Ir       6.85292537       2.37392298       9.23815605 
Ir       2.74117015       4.74784597       9.23815605 
Ir       5.48234030       4.74784597       9.23815605 
Ir       8.22351044       4.74784597       9.23815605 
Ir       1.37058507       0.79130766      11.47631211 
Ir       4.11175522       0.79130766      11.47631211 
Ir       6.85292537       0.79130766      11.47631211 
Ir       2.74117015       3.16523065      11.47631211 
Ir       5.48234030       3.16523065      11.47631211 
Ir       8.22351044       3.16523065      11.47631211 
Ir       4.11175522       5.53915363      11.47631211 
Ir       6.85292537       5.53915363      11.47631211 
Ir       9.59409552       5.53915363      11.47631211 
Ir       0.00000000       0.00000000      15.97080449 
Ir       6.86091372       7.12169592      15.85916045 
Ir       9.58610717       7.12169592      15.85916045 
Ir       9.59802645       2.38087761      15.85916045 
Ir       4.11175522       2.37392298      15.86074289 
Ir       6.84899444       2.38087761      15.85916045 
Ir      10.96062317       4.74096437      15.85916045 
Ir       5.48639771       4.74096437      15.85916045 
Ir       8.22351044       4.74784597      15.86929232 
Rh       8.22351044       1.57645118      13.69892987 
Rh       2.73583288       1.57953385      13.69083756 
Rh       5.48767756       1.57953385      13.69083756 
Rh       9.59430840       3.95641540      13.70069120 
Rh       4.11175522       3.96270125      13.69083756 
Rh       6.85271249       3.95641540      13.70069120 
Rh      10.97001889       6.33354336      13.69892987 
Rh       5.47700200       6.33354336      13.69892987 
Rh       8.22351044       6.33070710      13.70069120 
H       0.00000000       0.00000000      17.56692530 
