46
Lattice="8.223510443843312 0.0 0.0 4.111755221921656 7.121768952654951 0.0 0.0 0.0 22.952624214162014" Properties=species:S:1:pos:R:3 pbc="T T T"
Ir       8.22351044       1.58261532       7.00000000 
Ir       2.74117015       1.58261532       7.00000000 
Ir       5.48234030       1.58261532       7.00000000 
Ir       9.59409552       3.95653831       7.00000000 
Ir       4.11175522       3.95653831       7.00000000 
Ir       6.85292537       3.95653831       7.00000000 
Ir      10.96468059       6.33046129       7.00000000 
Ir       5.48234030       6.33046129       7.00000000 
Ir       8.22351044       6.33046129       7.00000000 
Ir       0.00000000       0.00000000       9.23815605 
Ir       2.74117015       0.00000000       9.23815605 
Ir       5.48234030       0.00000000       9.23815605 
Ir       1.37058507       2.37392298       9.23815605 
Ir       4.11175522       2.37392298       9.23815605 
Ir       6.85292537       2.37392298       9.23815605 
Ir       2.74117015       4.74784597       9.23815605 
Ir       5.48234030       4.74784597       9.23815605 
Ir       8.22351044       4.74784597       9.23815605 
Ir       1.37058507       0.79130766      11.47631211 
Ir       4.11175522       0.79130766      11.47631211 
Ir       6.85292537       0.79130766      11.47631211 
Ir       2.74117015       3.16523065      11.47631211 
Ir       5.48234030       3.16523065      11.47631211 
Ir       8.22351044       3.16523065      11.47631211 
Ir       4.11175522       5.53915363      11.47631211 
Ir       6.85292537       5.53915363      11.47631211 
Ir       9.59409552       5.53915363      11.47631211 
Ir      12.26841552       7.08317300      15.94857689 
Ir       6.91977552       7.08317300      15.94857689 
Ir       5.48234030       0.00047367      15.84705373 
Ir       9.59409552       2.45111489      15.94857689 
Ir       4.14549480       2.39340254      15.85406915 
Ir       6.81918579       2.39340254      15.85406915 
Ir       2.74158036       4.74760913      15.84705373 
Ir       5.48234030       4.70888686      15.85406915 
Ir       8.22310023       4.74760913      15.84705373 
Rh       8.22811385       1.57995755      13.68630588 
Rh       2.73656675       1.57995755      13.68630588 
Rh       5.48234030       1.57867894      13.68685583 
Rh       9.59409552       3.93943472      13.69588393 
Rh       4.10834622       3.95850650      13.68685583 
Rh       6.85633437       3.95850650      13.68685583 
Rh      10.97949274       6.33901309      13.69588393 
Rh       5.48234030       6.33577684      13.68630588 
Rh       8.20869830       6.33901309      13.69588393 
O       1.37058507       0.79130766      17.15002418 
