46
Lattice="8.154355400643267 0.0 0.0 4.077177700321633 7.061878928443901 0.0 0.0 0.0 22.877337739059687" Properties=species:S:1:pos:R:3 pbc="T T T"
Rh       8.15435540       1.56930643       7.00000000 
Rh       2.71811847       1.56930643       7.00000000 
Rh       5.43623693       1.56930643       7.00000000 
Rh       9.51341463       3.92326607       7.00000000 
Rh       4.07717770       3.92326607       7.00000000 
Rh       6.79529617       3.92326607       7.00000000 
Rh      10.87247387       6.27722571       7.00000000 
Rh       5.43623693       6.27722571       7.00000000 
Rh       8.15435540       6.27722571       7.00000000 
Rh       0.00000000       0.00000000       9.21933443 
Rh       2.71811847       0.00000000       9.21933443 
Rh       5.43623693       0.00000000       9.21933443 
Rh       1.35905923       2.35395964       9.21933443 
Rh       4.07717770       2.35395964       9.21933443 
Rh       6.79529617       2.35395964       9.21933443 
Rh       2.71811847       4.70791929       9.21933443 
Rh       5.43623693       4.70791929       9.21933443 
Rh       8.15435540       4.70791929       9.21933443 
Rh       1.35905923       0.78465321      11.43866887 
Rh       4.07717770       0.78465321      11.43866887 
Rh       6.79529617       0.78465321      11.43866887 
Rh       2.71811847       3.13861286      11.43866887 
Rh       5.43623693       3.13861286      11.43866887 
Rh       8.15435540       3.13861286      11.43866887 
Rh       4.07717770       5.49257250      11.43866887 
Rh       6.79529617       5.49257250      11.43866887 
Rh       9.51341463       5.49257250      11.43866887 
Rh      12.19508963       7.04083828      15.73760676 
Rh       6.79529617       7.00677033      15.81290092 
Rh       9.54985810       7.04083828      15.73760676 
Rh       9.46568919       2.38151394      15.81290092 
Rh       4.12490315       2.38151394      15.81290092 
Rh       6.79529617       2.35439040      15.75206245 
Rh      10.87247387       4.75000058      15.73760676 
Rh       5.43660998       4.70770391      15.75206245 
Rh       8.15398235       4.70770391      15.75206245 
Ru       8.17559968       1.57148359      13.62336742 
Ru       2.71811847       1.56930643      13.54193550 
Ru       5.41499265       1.57148359      13.62336742 
Ru       9.52215130       3.90377940      13.62336742 
Ru       4.06844104       3.90377940      13.62336742 
Ru       6.79529617       3.92326607      13.60545450 
Ru      10.87247387       6.27722571      13.61754060 
Ru       5.44874455       6.29453522      13.62336742 
Ru       8.14184778       6.29453522      13.62336742 
N       2.71811847       1.56930643      16.81589002 
