45
Lattice="8.154355400643267 0.0 0.0 4.077177700321633 7.061878928443901 0.0 0.0 0.0 22.877337739059687" Properties=species:S:1:pos:R:3 pbc="T T T"
Rh       8.15435540       1.56930643       7.00000000 
Rh       2.71811847       1.56930643       7.00000000 
Rh       5.43623693       1.56930643       7.00000000 
Rh       9.51341463       3.92326607       7.00000000 
Rh       4.07717770       3.92326607       7.00000000 
Rh       6.79529617       3.92326607       7.00000000 
Rh      10.87247387       6.27722571       7.00000000 
Rh       5.43623693       6.27722571       7.00000000 
Rh       8.15435540       6.27722571       7.00000000 
Rh       0.00000000       0.00000000       9.21933443 
Rh       2.71811847       0.00000000       9.21933443 
Rh       5.43623693       0.00000000       9.21933443 
Rh       1.35905923       2.35395964       9.21933443 
Rh       4.07717770       2.35395964       9.21933443 
Rh       6.79529617       2.35395964       9.21933443 
Rh       2.71811847       4.70791929       9.21933443 
Rh       5.43623693       4.70791929       9.21933443 
Rh       8.15435540       4.70791929       9.21933443 
Rh       1.35905923       0.78465321      11.43866887 
Rh       4.07717770       0.78465321      11.43866887 
Rh       6.79529617       0.78465321      11.43866887 
Rh       2.71811847       3.13861286      11.43866887 
Rh       5.43623693       3.13861286      11.43866887 
Rh       8.15435540       3.13861286      11.43866887 
Rh       4.07717770       5.49257250      11.43866887 
Rh       6.79529617       5.49257250      11.43866887 
Rh       9.51341463       5.49257250      11.43866887 
Rh       0.00000000       0.00000000      15.74115816 
Rh       2.71811847       0.00000000      15.74115816 
Rh       5.43623693       0.00000000      15.74115816 
Rh       1.35905923       2.35395964      15.74115816 
Rh       4.07717770       2.35395964      15.74115816 
Rh       6.79529617       2.35395964      15.74115816 
Rh       2.71811847       4.70791929      15.74115816 
Rh       5.43623693       4.70791929      15.74115816 
Rh       8.15435540       4.70791929      15.74115816 
Ru       8.15435540       1.56930643      13.60960486 
Ru       2.71811847       1.56930643      13.60960486 
Ru       5.43623693       1.56930643      13.60960486 
Ru       9.51341463       3.92326607      13.60960486 
Ru       4.07717770       3.92326607      13.60960486 
Ru       6.79529617       3.92326607      13.60960486 
Ru      10.87247387       6.27722571      13.60960486 
Ru       5.43623693       6.27722571      13.60960486 
Ru       8.15435540       6.27722571      13.60960486 
