46
Lattice="8.059040234966444 0.0 0.0 4.029520117483222 6.979333573601851 0.0 0.0 0.0 22.773571729878775" Properties=species:S:1:pos:R:3 pbc="T T T"
Ir       8.05904023       1.55096302       7.00000000 
Ir       2.68634674       1.55096302       7.00000000 
Ir       5.37269349       1.55096302       7.00000000 
Ir       9.40221361       3.87740754       7.00000000 
Ir       4.02952012       3.87740754       7.00000000 
Ir       6.71586686       3.87740754       7.00000000 
Ir      10.74538698       6.20385207       7.00000000 
Ir       5.37269349       6.20385207       7.00000000 
Ir       8.05904023       6.20385207       7.00000000 
Ir       0.00000000       0.00000000       9.19339293 
Ir       2.68634674       0.00000000       9.19339293 
Ir       5.37269349       0.00000000       9.19339293 
Ir       1.34317337       2.32644452       9.19339293 
Ir       4.02952012       2.32644452       9.19339293 
Ir       6.71586686       2.32644452       9.19339293 
Ir       2.68634674       4.65288905       9.19339293 
Ir       5.37269349       4.65288905       9.19339293 
Ir       8.05904023       4.65288905       9.19339293 
Ir       1.34317337       0.77548151      11.38678586 
Ir       4.02952012       0.77548151      11.38678586 
Ir       6.71586686       0.77548151      11.38678586 
Ir       2.68634674       3.10192603      11.38678586 
Ir       5.37269349       3.10192603      11.38678586 
Ir       8.05904023       3.10192603      11.38678586 
Ir       4.02952012       5.42837056      11.38678586 
Ir       6.71586686       5.42837056      11.38678586 
Ir       9.40221361       5.42837056      11.38678586 
Ir      12.05005824       6.95710437      16.15200360 
Ir       6.75436897       6.95710437      16.15200360 
Ir       5.37269349       0.00562698      15.98194979 
Ir       9.40221361       2.37090293      16.15200360 
Ir       4.05623634       2.34186914      15.93636651 
Ir       6.68915064       2.34186914      15.93636651 
Ir       2.69121986       4.65007556      15.98194979 
Ir       5.37269349       4.62203981      15.93636651 
Ir       8.05416712       4.65007556      15.98194979 
Pd       8.06504677       1.54749514      13.70934259 
Pd       2.68034021       1.54749514      13.70934259 
Pd       5.37269349       1.54527515      13.67722554 
Pd       9.40221361       3.86808169      13.71339176 
Pd       4.02459428       3.88025147      13.67722554 
Pd       6.72079270       3.88025147      13.67722554 
Pd      10.75346340       6.20851499      13.71339176 
Pd       5.37269349       6.21078781      13.70934259 
Pd       8.05096382       6.20851499      13.71339176 
N       1.34317337       0.77548151      17.29082219 
