46
Lattice="8.394488863534217 0.0 0.0 4.197244431767109 7.269840607606193 0.0 0.0 0.0 23.138761940948747" Properties=species:S:1:pos:R:3 pbc="T T T"
Pd       8.39448886       1.61552014       7.00000000 
Pd       2.79816295       1.61552014       7.00000000 
Pd       5.59632591       1.61552014       7.00000000 
Pd       9.79357034       4.03880034       7.00000000 
Pd       4.19724443       4.03880034       7.00000000 
Pd       6.99540739       4.03880034       7.00000000 
Pd      11.19265182       6.46208054       7.00000000 
Pd       5.59632591       6.46208054       7.00000000 
Pd       8.39448886       6.46208054       7.00000000 
Pd       0.00000000       0.00000000       9.28469049 
Pd       2.79816295       0.00000000       9.28469049 
Pd       5.59632591       0.00000000       9.28469049 
Pd       1.39908148       2.42328020       9.28469049 
Pd       4.19724443       2.42328020       9.28469049 
Pd       6.99540739       2.42328020       9.28469049 
Pd       2.79816295       4.84656041       9.28469049 
Pd       5.59632591       4.84656041       9.28469049 
Pd       8.39448886       4.84656041       9.28469049 
Pd       1.39908148       0.80776007      11.56938097 
Pd       4.19724443       0.80776007      11.56938097 
Pd       6.99540739       0.80776007      11.56938097 
Pd       2.79816295       3.23104027      11.56938097 
Pd       5.59632591       3.23104027      11.56938097 
Pd       8.39448886       3.23104027      11.56938097 
Pd       4.19724443       5.65432047      11.56938097 
Pd       6.99540739       5.65432047      11.56938097 
Pd       9.79357034       5.65432047      11.56938097 
Pd       0.00307333       0.00177439      15.96096690 
Pd       2.79508963       0.00177439      15.96096690 
Pd       9.79357034       7.25918946      15.90245453 
Pd       1.39908148       2.41973143      15.96096690 
Pd       4.20847830       2.42976608      15.90687367 
Pd       6.98417352       2.42976608      15.90687367 
Pd      11.18342765       4.85188598      15.90245453 
Pd       5.59632591       4.83358865      15.90687367 
Pd       8.40371303       4.85188598      15.90245453 
Os       8.39010386       1.61805182      13.70348256 
Os       2.80254796       1.61805182      13.70348256 
Os       5.59632591       1.61171068      13.73048531 
Os       9.79357034       3.99013333      13.76301733 
Os       4.19394534       4.04070507      13.73048531 
Os       6.99870647       4.04070507      13.73048531 
Os      11.23479868       6.48641404      13.76301733 
Os       5.59632591       6.45701717      13.70348256 
Os       8.35234200       6.48641404      13.76301733 
O       1.39908148       0.80776007      17.26272687 
