46
Lattice="8.520855916400066 0.0 0.0 4.260427958200033 7.37927768558939 0.0 0.0 0.0 23.276332963091257" Properties=species:S:1:pos:R:3 pbc="T T T"
Pt       8.52085592       1.63983949       7.00000000 
Pt       2.84028531       1.63983949       7.00000000 
Pt       5.68057061       1.63983949       7.00000000 
Pt       9.94099857       4.09959871       7.00000000 
Pt       4.26042796       4.09959871       7.00000000 
Pt       7.10071326       4.09959871       7.00000000 
Pt      11.36114122       6.55935794       7.00000000 
Pt       5.68057061       6.55935794       7.00000000 
Pt       8.52085592       6.55935794       7.00000000 
Pt       0.00000000       0.00000000       9.31908324 
Pt       2.84028531       0.00000000       9.31908324 
Pt       5.68057061       0.00000000       9.31908324 
Pt       1.42014265       2.45975923       9.31908324 
Pt       4.26042796       2.45975923       9.31908324 
Pt       7.10071326       2.45975923       9.31908324 
Pt       2.84028531       4.91951846       9.31908324 
Pt       5.68057061       4.91951846       9.31908324 
Pt       8.52085592       4.91951846       9.31908324 
Pt       1.42014265       0.81991974      11.63816648 
Pt       4.26042796       0.81991974      11.63816648 
Pt       7.10071326       0.81991974      11.63816648 
Pt       2.84028531       3.27967897      11.63816648 
Pt       5.68057061       3.27967897      11.63816648 
Pt       8.52085592       3.27967897      11.63816648 
Pt       4.26042796       5.73943820      11.63816648 
Pt       7.10071326       5.73943820      11.63816648 
Pt       9.94099857       5.73943820      11.63816648 
Pt       8.52991950       1.63460662      13.88784395 
Pt       2.83122172       1.63460662      13.88784395 
Pt       5.68057061       1.63344579      13.86651993 
Pt       9.94099857       4.08538822      13.90123764 
Pt       4.25489085       4.10279556      13.86651993 
Pt       7.10625037       4.10279556      13.86651993 
Pt      11.37344787       6.56646319      13.90123764 
Pt       5.68057061       6.56982367      13.88784395 
Pt       8.50854927       6.56646319      13.90123764 
Pt      12.68694570       7.32481152      16.25764179 
Pt       7.19505144       7.32481152      16.25764179 
Pt       9.94099857       7.37856807      16.16642373 
Pt       9.94099857       2.56869157      16.25764179 
Pt       4.29107251       2.47745187      16.13225898 
Pt       7.07006871       2.47745187      16.13225898 
Pt      11.36052668       4.91987326      16.16642373 
Pt       5.68057061       4.88413317      16.13225898 
Pt       8.52147046       4.91987326      16.16642373 
N       1.42014265       0.81991974      17.08820986 
