46
Lattice="8.436491006336698 0.0 0.0 4.218245503168349 7.306215530286524 0.0 0.0 0.0 23.184488082268565" Properties=species:S:1:pos:R:3 pbc="T T T"
Pt       8.43649101       1.62360345       7.00000000 
Pt       2.81216367       1.62360345       7.00000000 
Pt       5.62432734       1.62360345       7.00000000 
Pt       9.84257284       4.05900863       7.00000000 
Pt       4.21824550       4.05900863       7.00000000 
Pt       7.03040917       4.05900863       7.00000000 
Pt      11.24865468       6.49441380       7.00000000 
Pt       5.62432734       6.49441380       7.00000000 
Pt       8.43649101       6.49441380       7.00000000 
Pt       0.00000000       0.00000000       9.29612202 
Pt       2.81216367       0.00000000       9.29612202 
Pt       5.62432734       0.00000000       9.29612202 
Pt       1.40608183       2.43540518       9.29612202 
Pt       4.21824550       2.43540518       9.29612202 
Pt       7.03040917       2.43540518       9.29612202 
Pt       2.81216367       4.87081035       9.29612202 
Pt       5.62432734       4.87081035       9.29612202 
Pt       8.43649101       4.87081035       9.29612202 
Pt       1.40608183       0.81180173      11.59224404 
Pt       4.21824550       0.81180173      11.59224404 
Pt       7.03040917       0.81180173      11.59224404 
Pt       2.81216367       3.24720690      11.59224404 
Pt       5.62432734       3.24720690      11.59224404 
Pt       8.43649101       3.24720690      11.59224404 
Pt       4.21824550       5.68261208      11.59224404 
Pt       7.03040917       5.68261208      11.59224404 
Pt       9.84257284       5.68261208      11.59224404 
Pt       8.44328472       1.61968110      13.86161700 
Pt       2.80536995       1.61968110      13.86161700 
Pt       5.62432734       1.61839965      13.84867775 
Pt       9.84257284       4.04907973      13.89570376 
Pt       4.21373888       4.06161053      13.84867775 
Pt       7.03491580       4.06161053      13.84867775 
Pt      11.25725335       6.49937825      13.89570376 
Pt       5.62432734       6.50225851      13.86161700 
Pt       8.42789233       6.49937825      13.89570376 
Pt      12.56564539       7.25477875      16.22037415 
Pt       7.11950029       7.25477875      16.22037415 
Pt       5.62432734       0.00247971      16.18605399 
Pt       9.84257284       2.53827874      16.22037415 
Pt       4.24034392       2.44816371      16.14203225 
Pt       7.00831075       2.44816371      16.14203225 
Pt       2.81431116       4.86957050      16.18605399 
Pt       5.62432734       4.84529330      16.14203225 
Pt       8.43434352       4.86957050      16.18605399 
O       1.40608183       0.81180173      17.32825903 
