46
Lattice="8.35212609627333 0.0 0.0 4.176063048136665 7.233153374983659 0.0 0.0 0.0 23.09264320144588" Properties=species:S:1:pos:R:3 pbc="T T T"
Pt       8.35212610       1.60736742       7.00000000 
Pt       2.78404203       1.60736742       7.00000000 
Pt       5.56808406       1.60736742       7.00000000 
Pt       9.74414711       4.01841854       7.00000000 
Pt       4.17606305       4.01841854       7.00000000 
Pt       6.96010508       4.01841854       7.00000000 
Pt      11.13616813       6.42946967       7.00000000 
Pt       5.56808406       6.42946967       7.00000000 
Pt       8.35212610       6.42946967       7.00000000 
Pt       0.00000000       0.00000000       9.27316080 
Pt       2.78404203       0.00000000       9.27316080 
Pt       5.56808406       0.00000000       9.27316080 
Pt       1.39202102       2.41105112       9.27316080 
Pt       4.17606305       2.41105112       9.27316080 
Pt       6.96010508       2.41105112       9.27316080 
Pt       2.78404203       4.82210225       9.27316080 
Pt       5.56808406       4.82210225       9.27316080 
Pt       8.35212610       4.82210225       9.27316080 
Pt       1.39202102       0.80368371      11.54632160 
Pt       4.17606305       0.80368371      11.54632160 
Pt       6.96010508       0.80368371      11.54632160 
Pt       2.78404203       3.21473483      11.54632160 
Pt       5.56808406       3.21473483      11.54632160 
Pt       8.35212610       3.21473483      11.54632160 
Pt       4.17606305       5.62578596      11.54632160 
Pt       6.96010508       5.62578596      11.54632160 
Pt       9.74414711       5.62578596      11.54632160 
Pt      12.42848312       7.17558808      16.04788595 
Pt       7.05981110       7.17558808      16.04788595 
Pt       9.74414711       7.23213650      15.89334581 
Pt       9.74414711       2.52618172      16.04788595 
Pt       4.19483275       2.42188782      15.90150448 
Pt       6.94133538       2.42188782      15.90150448 
Pt      11.13528749       4.82261069      15.89334581 
Pt       5.56808406       4.80042887      15.90150448 
Pt       8.35300674       4.82261069      15.89334581 
Ru       8.36952979       1.59731939      13.68780141 
Ru       2.76663834       1.59731939      13.68780141 
Ru       5.56808406       1.59686382      13.70242359 
Ru       9.74414711       3.99019742      13.70242365 
Ru       4.16696667       4.02367034      13.70242359 
Ru       6.96920146       4.02367034      13.70242359 
Ru      11.16060833       6.44358023      13.70242365 
Ru       5.56808406       6.44956572      13.68780141 
Ru       8.32768589       6.44358023      13.70242365 
C       1.39202102       0.80368371      16.89482201 
