46
Lattice="8.35212609627333 0.0 0.0 4.176063048136665 7.233153374983659 0.0 0.0 0.0 23.09264320144588" Properties=species:S:1:pos:R:3 pbc="T T T"
Pt       8.35212610       1.60736742       7.00000000 
Pt       2.78404203       1.60736742       7.00000000 
Pt       5.56808406       1.60736742       7.00000000 
Pt       9.74414711       4.01841854       7.00000000 
Pt       4.17606305       4.01841854       7.00000000 
Pt       6.96010508       4.01841854       7.00000000 
Pt      11.13616813       6.42946967       7.00000000 
Pt       5.56808406       6.42946967       7.00000000 
Pt       8.35212610       6.42946967       7.00000000 
Pt       0.00000000       0.00000000       9.27316080 
Pt       2.78404203       0.00000000       9.27316080 
Pt       5.56808406       0.00000000       9.27316080 
Pt       1.39202102       2.41105112       9.27316080 
Pt       4.17606305       2.41105112       9.27316080 
Pt       6.96010508       2.41105112       9.27316080 
Pt       2.78404203       4.82210225       9.27316080 
Pt       5.56808406       4.82210225       9.27316080 
Pt       8.35212610       4.82210225       9.27316080 
Pt       1.39202102       0.80368371      11.54632160 
Pt       4.17606305       0.80368371      11.54632160 
Pt       6.96010508       0.80368371      11.54632160 
Pt       2.78404203       3.21473483      11.54632160 
Pt       5.56808406       3.21473483      11.54632160 
Pt       8.35212610       3.21473483      11.54632160 
Pt       4.17606305       5.62578596      11.54632160 
Pt       6.96010508       5.62578596      11.54632160 
Pt       9.74414711       5.62578596      11.54632160 
Pt      12.45181022       7.18905598      16.09298004 
Pt       7.03648401       7.18905598      16.09298004 
Pt       9.74414711       7.23208665      15.97631119 
Pt       9.74414711       2.49924591      16.09298004 
Pt       4.19966254       2.42467630      15.96541155 
Pt       6.93650559       2.42467630      15.96541155 
Pt      11.13524432       4.82263561      15.97631119 
Pt       5.56808406       4.79485191      15.96541155 
Pt       8.35304990       4.82263561      15.97631119 
Rh       8.35951075       1.60310389      13.74078870 
Rh       2.77665738       1.60310389      13.74078870 
Rh       5.56808406       1.60129098      13.73654945 
Rh       9.74414711       3.99553289      13.75810106 
Rh       4.17080070       4.02145676      13.73654945 
Rh       6.96536743       4.02145676      13.73654945 
Rh      11.15598769       6.44091249      13.75810106 
Rh       5.56808406       6.43799673      13.74078870 
Rh       8.33230654       6.44091249      13.75810106 
N       1.39202102       0.80368371      17.05362117 
