46
Lattice="8.267761186209963 0.0 0.0 4.133880593104982 7.160091219680793 0.0 0.0 0.0 23.000798320623197" Properties=species:S:1:pos:R:3 pbc="T T T"
Pt       8.26776119       1.59113138       7.00000000 
Pt       2.75592040       1.59113138       7.00000000 
Pt       5.51184079       1.59113138       7.00000000 
Pt       9.64572138       3.97782846       7.00000000 
Pt       4.13388059       3.97782846       7.00000000 
Pt       6.88980099       3.97782846       7.00000000 
Pt      11.02368158       6.36452553       7.00000000 
Pt       5.51184079       6.36452553       7.00000000 
Pt       8.26776119       6.36452553       7.00000000 
Pt       0.00000000       0.00000000       9.25019958 
Pt       2.75592040       0.00000000       9.25019958 
Pt       5.51184079       0.00000000       9.25019958 
Pt       1.37796020       2.38669707       9.25019958 
Pt       4.13388059       2.38669707       9.25019958 
Pt       6.88980099       2.38669707       9.25019958 
Pt       2.75592040       4.77339415       9.25019958 
Pt       5.51184079       4.77339415       9.25019958 
Pt       8.26776119       4.77339415       9.25019958 
Pt       1.37796020       0.79556569      11.50039916 
Pt       4.13388059       0.79556569      11.50039916 
Pt       6.88980099       0.79556569      11.50039916 
Pt       2.75592040       3.18226276      11.50039916 
Pt       5.51184079       3.18226276      11.50039916 
Pt       8.26776119       3.18226276      11.50039916 
Pt       4.13388059       5.56895984      11.50039916 
Pt       6.88980099       5.56895984      11.50039916 
Pt       9.64572138       5.56895984      11.50039916 
Pt       0.00000000       0.00000000      15.74689081 
Pt       6.89524102       7.15852135      15.64110053 
Pt       9.64028135       7.15852135      15.64110053 
Pt       9.64708185       2.39219322      15.64110053 
Pt       4.13388059       2.38669707      15.63801851 
Pt       6.88844052       2.39219322      15.64110053 
Pt      11.01960201       4.76946788      15.64110053 
Pt       5.51592036       4.76946788      15.64110053 
Pt       8.26776119       4.77339415      15.64077549 
Ni       8.26776119       1.55653775      13.57170598 
Ni       2.75013686       1.58779226      13.56388403 
Ni       5.51762433       1.58779226      13.56388403 
Ni       9.65010163       3.97529952      13.56567433 
Ni       4.13388059       3.98450671      13.56388403 
Ni       6.88542075       3.97529952      13.56567433 
Ni      11.05364054       6.38182234      13.57170598 
Ni       5.48188183       6.38182234      13.57170598 
Ni       8.26776119       6.36958340      13.56567433 
H       0.00000000       0.00000000      17.31909005 
