46
Lattice="8.059040234966444 0.0 0.0 4.029520117483222 6.979333573601851 0.0 0.0 0.0 22.773571729878775" Properties=species:S:1:pos:R:3 pbc="T T T"
Ir       8.05904023       1.55096302       7.00000000 
Ir       2.68634674       1.55096302       7.00000000 
Ir       5.37269349       1.55096302       7.00000000 
Ir       9.40221361       3.87740754       7.00000000 
Ir       4.02952012       3.87740754       7.00000000 
Ir       6.71586686       3.87740754       7.00000000 
Ir      10.74538698       6.20385207       7.00000000 
Ir       5.37269349       6.20385207       7.00000000 
Ir       8.05904023       6.20385207       7.00000000 
Ir       0.00000000       0.00000000       9.19339293 
Ir       2.68634674       0.00000000       9.19339293 
Ir       5.37269349       0.00000000       9.19339293 
Ir       1.34317337       2.32644452       9.19339293 
Ir       4.02952012       2.32644452       9.19339293 
Ir       6.71586686       2.32644452       9.19339293 
Ir       2.68634674       4.65288905       9.19339293 
Ir       5.37269349       4.65288905       9.19339293 
Ir       8.05904023       4.65288905       9.19339293 
Ir       1.34317337       0.77548151      11.38678586 
Ir       4.02952012       0.77548151      11.38678586 
Ir       6.71586686       0.77548151      11.38678586 
Ir       2.68634674       3.10192603      11.38678586 
Ir       5.37269349       3.10192603      11.38678586 
Ir       8.05904023       3.10192603      11.38678586 
Ir       4.02952012       5.42837056      11.38678586 
Ir       6.71586686       5.42837056      11.38678586 
Ir       9.40221361       5.42837056      11.38678586 
Ir      12.05632476       6.96072235      15.97959581 
Ir       6.74810245       6.96072235      15.97959581 
Ir       9.40221361       6.97884368      15.82712623 
Ir       9.40221361       2.36366698      15.97959581 
Ir       4.06025297       2.34418814      15.82442229 
Ir       6.68513401       2.34418814      15.82442229 
Ir      10.74496272       4.65313399      15.82712623 
Ir       5.37269349       4.61740181      15.82442229 
Ir       8.05946449       4.65313399      15.82712623 
Rh       8.06531304       1.54734141      13.63157956 
Rh       2.68007394       1.54734141      13.63157956 
Rh       5.37269349       1.54316328      13.63620345 
Rh       9.40221361       3.87014717      13.63671086 
Rh       4.02276535       3.88130741      13.63620345 
Rh       6.72262163       3.88130741      13.63620345 
Rh      10.75167465       6.20748225      13.63671086 
Rh       5.37269349       6.21109528      13.63157956 
Rh       8.05275257       6.20748225      13.63671086 
N       1.34317337       0.77548151      17.14583574 
