46
Lattice="8.059040234966444 0.0 0.0 4.029520117483222 6.979333573601851 0.0 0.0 0.0 22.773571729878775" Properties=species:S:1:pos:R:3 pbc="T T T"
Ir       8.05904023       1.55096302       7.00000000 
Ir       2.68634674       1.55096302       7.00000000 
Ir       5.37269349       1.55096302       7.00000000 
Ir       9.40221361       3.87740754       7.00000000 
Ir       4.02952012       3.87740754       7.00000000 
Ir       6.71586686       3.87740754       7.00000000 
Ir      10.74538698       6.20385207       7.00000000 
Ir       5.37269349       6.20385207       7.00000000 
Ir       8.05904023       6.20385207       7.00000000 
Ir       0.00000000       0.00000000       9.19339293 
Ir       2.68634674       0.00000000       9.19339293 
Ir       5.37269349       0.00000000       9.19339293 
Ir       1.34317337       2.32644452       9.19339293 
Ir       4.02952012       2.32644452       9.19339293 
Ir       6.71586686       2.32644452       9.19339293 
Ir       2.68634674       4.65288905       9.19339293 
Ir       5.37269349       4.65288905       9.19339293 
Ir       8.05904023       4.65288905       9.19339293 
Ir       1.34317337       0.77548151      11.38678586 
Ir       4.02952012       0.77548151      11.38678586 
Ir       6.71586686       0.77548151      11.38678586 
Ir       2.68634674       3.10192603      11.38678586 
Ir       5.37269349       3.10192603      11.38678586 
Ir       8.05904023       3.10192603      11.38678586 
Ir       4.02952012       5.42837056      11.38678586 
Ir       6.71586686       5.42837056      11.38678586 
Ir       9.40221361       5.42837056      11.38678586 
Ir      12.05981559       6.96273778      15.82028045 
Ir       6.71586686       6.89980460      15.92816581 
Ir       9.43095837       6.96273778      15.82028045 
Ir       9.33333950       2.36620901      15.92816581 
Ir       4.09839423       2.36620901      15.92816581 
Ir       6.71586686       2.32029451      15.85167186 
Ir      10.74538698       4.68608064      15.82028045 
Ir       5.36736742       4.65596406      15.85167186 
Ir       8.06436630       4.65596406      15.85167186 
Rh       8.07018397       1.55243730      13.64358524 
Rh       2.68634674       1.55096302      13.61155827 
Rh       5.36154976       1.55243730      13.64358524 
Rh       9.40650870       3.86701964      13.64358524 
Rh       4.02522502       3.86701964      13.64358524 
Rh       6.71586686       3.87740754      13.63301226 
Rh      10.74538698       6.20385207      13.62328804 
Rh       5.37954213       6.21276568      13.64358524 
Rh       8.05219160       6.21276568      13.64358524 
C       2.68634674       1.55096302      16.98282371 
