46
Lattice="8.305745548281743 0.0 0.0 4.152872774140872 7.1929866421815 0.0 0.0 0.0 23.042150456303634" Properties=species:S:1:pos:R:3 pbc="T T T"
Ir       8.30574555       1.59844148       7.00000000 
Ir       2.76858185       1.59844148       7.00000000 
Ir       5.53716370       1.59844148       7.00000000 
Ir       9.69003647       3.99610369       7.00000000 
Ir       4.15287277       3.99610369       7.00000000 
Ir       6.92145462       3.99610369       7.00000000 
Ir      11.07432740       6.39376590       7.00000000 
Ir       5.53716370       6.39376590       7.00000000 
Ir       8.30574555       6.39376590       7.00000000 
Ir       0.00000000       0.00000000       9.26053761 
Ir       2.76858185       0.00000000       9.26053761 
Ir       5.53716370       0.00000000       9.26053761 
Ir       1.38429092       2.39766221       9.26053761 
Ir       4.15287277       2.39766221       9.26053761 
Ir       6.92145462       2.39766221       9.26053761 
Ir       2.76858185       4.79532443       9.26053761 
Ir       5.53716370       4.79532443       9.26053761 
Ir       8.30574555       4.79532443       9.26053761 
Ir       1.38429092       0.79922074      11.52107523 
Ir       4.15287277       0.79922074      11.52107523 
Ir       6.92145462       0.79922074      11.52107523 
Ir       2.76858185       3.19688295      11.52107523 
Ir       5.53716370       3.19688295      11.52107523 
Ir       8.30574555       3.19688295      11.52107523 
Ir       4.15287277       5.59454517      11.52107523 
Ir       6.92145462       5.59454517      11.52107523 
Ir       9.69003647       5.59454517      11.52107523 
Ir      12.30605363       7.10490337      16.11367556 
Ir       7.07401932       7.10490337      16.11367556 
Ir       5.53716370       0.05103000      15.99378925 
Ir       9.69003647       2.57382875      16.11367556 
Ir       4.21470847       2.43336307      15.99270190 
Ir       6.85961893       2.43336307      15.99270190 
Ir       2.81277512       4.76980943      15.99378925 
Ir       5.53716370       4.72392272      15.99270190 
Ir       8.26155227       4.76980943      15.99378925 
Pd       8.31026657       1.59583126      13.80861558 
Pd       2.76406083       1.59583126      13.80861558 
Pd       5.53716370       1.59545722      13.74865399 
Pd       9.69003647       3.99133153      13.77605440 
Pd       4.15028834       3.99759582      13.74865399 
Pd       6.92403906       3.99759582      13.74865399 
Pd      11.07846021       6.39615199      13.77605440 
Pd       5.53716370       6.39898633      13.80861558 
Pd       8.30161273       6.39615199      13.77605440 
N       1.38429092       0.79922074      16.84244280 
