46
Lattice="8.154355400643267 0.0 0.0 4.077177700321633 7.061878928443901 0.0 0.0 0.0 22.877337739059687" Properties=species:S:1:pos:R:3 pbc="T T T"
Rh       8.15435540       1.56930643       7.00000000 
Rh       2.71811847       1.56930643       7.00000000 
Rh       5.43623693       1.56930643       7.00000000 
Rh       9.51341463       3.92326607       7.00000000 
Rh       4.07717770       3.92326607       7.00000000 
Rh       6.79529617       3.92326607       7.00000000 
Rh      10.87247387       6.27722571       7.00000000 
Rh       5.43623693       6.27722571       7.00000000 
Rh       8.15435540       6.27722571       7.00000000 
Rh       0.00000000       0.00000000       9.21933443 
Rh       2.71811847       0.00000000       9.21933443 
Rh       5.43623693       0.00000000       9.21933443 
Rh       1.35905923       2.35395964       9.21933443 
Rh       4.07717770       2.35395964       9.21933443 
Rh       6.79529617       2.35395964       9.21933443 
Rh       2.71811847       4.70791929       9.21933443 
Rh       5.43623693       4.70791929       9.21933443 
Rh       8.15435540       4.70791929       9.21933443 
Rh       1.35905923       0.78465321      11.43866887 
Rh       4.07717770       0.78465321      11.43866887 
Rh       6.79529617       0.78465321      11.43866887 
Rh       2.71811847       3.13861286      11.43866887 
Rh       5.43623693       3.13861286      11.43866887 
Rh       8.15435540       3.13861286      11.43866887 
Rh       4.07717770       5.49257250      11.43866887 
Rh       6.79529617       5.49257250      11.43866887 
Rh       9.51341463       5.49257250      11.43866887 
Rh       8.15599167       1.56836173      13.64460292 
Rh       2.71648220       1.56836173      13.64460292 
Rh       5.43623693       1.56885521      13.63955864 
Rh       9.51341463       3.92225623      13.63881629 
Rh       4.07678694       3.92349168      13.63955864 
Rh       6.79568693       3.92349168      13.63955864 
Rh      10.87334842       6.27773064      13.63881629 
Rh       5.43623693       6.27911512      13.64460292 
Rh       8.15348085       6.27773064      13.63881629 
Rh      12.20938399       7.04909113      15.83323162 
Rh       6.81744528       7.04909113      15.83323162 
Rh       5.43623693       0.00096122      15.80326180 
Rh       9.51341463       2.37953523      15.83323162 
Rh       4.08690593       2.35957624      15.80688088 
Rh       6.78556794       2.35957624      15.80688088 
Rh       2.71895091       4.70743867      15.80326180 
Rh       5.43623693       4.69668609      15.80688088 
Rh       8.15352296       4.70743867      15.80326180 
H       1.35905923       0.78465321      16.78888526 
