46
Lattice="8.394488863534217 0.0 0.0 4.197244431767109 7.269840607606193 0.0 0.0 0.0 23.138761940948747" Properties=species:S:1:pos:R:3 pbc="T T T"
Pd       8.39448886       1.61552014       7.00000000 
Pd       2.79816295       1.61552014       7.00000000 
Pd       5.59632591       1.61552014       7.00000000 
Pd       9.79357034       4.03880034       7.00000000 
Pd       4.19724443       4.03880034       7.00000000 
Pd       6.99540739       4.03880034       7.00000000 
Pd      11.19265182       6.46208054       7.00000000 
Pd       5.59632591       6.46208054       7.00000000 
Pd       8.39448886       6.46208054       7.00000000 
Pd       0.00000000       0.00000000       9.28469049 
Pd       2.79816295       0.00000000       9.28469049 
Pd       5.59632591       0.00000000       9.28469049 
Pd       1.39908148       2.42328020       9.28469049 
Pd       4.19724443       2.42328020       9.28469049 
Pd       6.99540739       2.42328020       9.28469049 
Pd       2.79816295       4.84656041       9.28469049 
Pd       5.59632591       4.84656041       9.28469049 
Pd       8.39448886       4.84656041       9.28469049 
Pd       1.39908148       0.80776007      11.56938097 
Pd       4.19724443       0.80776007      11.56938097 
Pd       6.99540739       0.80776007      11.56938097 
Pd       2.79816295       3.23104027      11.56938097 
Pd       5.59632591       3.23104027      11.56938097 
Pd       8.39448886       3.23104027      11.56938097 
Pd       4.19724443       5.65432047      11.56938097 
Pd       6.99540739       5.65432047      11.56938097 
Pd       9.79357034       5.65432047      11.56938097 
Pd      12.57652521       7.26106021      16.16823296 
Pd       7.01061547       7.26106021      16.16823296 
Pd       5.59632591       0.00029260      16.13926880 
Pd       9.79357034       2.44084099      16.16823296 
Pd       4.20695859       2.42888867      16.13615104 
Pd       6.98569323       2.42888867      16.13615104 
Pd       2.79841635       4.84641411      16.13926880 
Pd       5.59632591       4.83534346      16.13615104 
Pd       8.39423547       4.84641411      16.13926880 
Pt       8.39560336       1.61487668      13.85021794 
Pt       2.79704846       1.61487668      13.85021794 
Pt       5.59632591       1.61549081      13.84804336 
Pt       9.79357034       4.03879663      13.85569363 
Pt       4.19721904       4.03881500      13.84804336 
Pt       6.99543278       4.03881500      13.84804336 
Pt      11.19265503       6.46208239      13.85569363 
Pt       5.59632591       6.46336745      13.85021794 
Pt       8.39448565       6.46208239      13.85569363 
H       1.39908148       0.80776007      16.97118956 
