46
Lattice="8.562378640804901 0.0 0.0 4.281189320402451 7.415237419758317 0.0 0.0 0.0 23.321537179767724" Properties=species:S:1:pos:R:3 pbc="T T T"
Pd       8.56237864       1.64783054       7.00000000 
Pd       2.85412621       1.64783054       7.00000000 
Pd       5.70825243       1.64783054       7.00000000 
Pd       9.98944175       4.11957634       7.00000000 
Pd       4.28118932       4.11957634       7.00000000 
Pd       7.13531553       4.11957634       7.00000000 
Pd      11.41650485       6.59132215       7.00000000 
Pd       5.70825243       6.59132215       7.00000000 
Pd       8.56237864       6.59132215       7.00000000 
Pd       0.00000000       0.00000000       9.33038429 
Pd       2.85412621       0.00000000       9.33038429 
Pd       5.70825243       0.00000000       9.33038429 
Pd       1.42706311       2.47174581       9.33038429 
Pd       4.28118932       2.47174581       9.33038429 
Pd       7.13531553       2.47174581       9.33038429 
Pd       2.85412621       4.94349161       9.33038429 
Pd       5.70825243       4.94349161       9.33038429 
Pd       8.56237864       4.94349161       9.33038429 
Pd       1.42706311       0.82391527      11.66076859 
Pd       4.28118932       0.82391527      11.66076859 
Pd       7.13531553       0.82391527      11.66076859 
Pd       2.85412621       3.29566108      11.66076859 
Pd       5.70825243       3.29566108      11.66076859 
Pd       8.56237864       3.29566108      11.66076859 
Pd       4.28118932       5.76740688      11.66076859 
Pd       7.13531553       5.76740688      11.66076859 
Pd       9.98944175       5.76740688      11.66076859 
Pd       0.01674116       0.00966551      15.97787504 
Pd       2.83738505       0.00966551      15.97787504 
Pd       9.98944175       7.40655393      15.91827614 
Pd       1.42706311       2.45241478      15.97787504 
Pd       4.28865475       2.47605597      15.92563828 
Pd       7.12785011       2.47605597      15.92563828 
Pd      11.40898473       4.94783336      15.91827614 
Pd       5.70825243       4.93487128      15.92563828 
Pd       8.56989877       4.94783336      15.91827614 
Os       8.56767300       1.64477384      13.77381319 
Os       2.84883186       1.64477384      13.77381319 
Os       5.70825243       1.64158561      13.77908915 
Os       9.98944175       4.04422480      13.80290663 
Os       4.27578106       4.12269881      13.77908915 
Os       7.14072380       4.12269881      13.77908915 
Os      11.48176120       6.62899792      13.80290663 
Os       5.70825243       6.59743555      13.77381319 
Os       8.49712229       6.62899792      13.80290663 
H       1.42706311       0.82391527      16.92230995 
