46
Lattice="8.317442508656132 0.0 0.0 4.158721254328066 7.20311650701278 0.0 0.0 0.0 23.05488449384088" Properties=species:S:1:pos:R:3 pbc="T T T"
Rh       8.31744251       1.60069256       7.00000000 
Rh       2.77248084       1.60069256       7.00000000 
Rh       5.54496167       1.60069256       7.00000000 
Rh       9.70368293       4.00173139       7.00000000 
Rh       4.15872125       4.00173139       7.00000000 
Rh       6.93120209       4.00173139       7.00000000 
Rh      11.08992334       6.40277023       7.00000000 
Rh       5.54496167       6.40277023       7.00000000 
Rh       8.31744251       6.40277023       7.00000000 
Rh       0.00000000       0.00000000       9.26372112 
Rh       2.77248084       0.00000000       9.26372112 
Rh       5.54496167       0.00000000       9.26372112 
Rh       1.38624042       2.40103884       9.26372112 
Rh       4.15872125       2.40103884       9.26372112 
Rh       6.93120209       2.40103884       9.26372112 
Rh       2.77248084       4.80207767       9.26372112 
Rh       5.54496167       4.80207767       9.26372112 
Rh       8.31744251       4.80207767       9.26372112 
Rh       1.38624042       0.80034628      11.52744225 
Rh       4.15872125       0.80034628      11.52744225 
Rh       6.93120209       0.80034628      11.52744225 
Rh       2.77248084       3.20138511      11.52744225 
Rh       5.54496167       3.20138511      11.52744225 
Rh       8.31744251       3.20138511      11.52744225 
Rh       4.15872125       5.60242395      11.52744225 
Rh       6.93120209       5.60242395      11.52744225 
Rh       9.70368293       5.60242395      11.52744225 
Rh      12.43409813       7.17882990      15.85277333 
Rh       6.93120209       7.13588402      15.91844891 
Rh       9.74574856       7.17882990      15.85277333 
Rh       9.64545789       2.43465508      15.91844891 
Rh       4.21694629       2.43465508      15.91844891 
Rh       6.93120209       2.39859234      15.86914603 
Rh      11.08992334       4.85065088      15.85277333 
Rh       5.54284295       4.80330092      15.86914603 
Rh       8.31956123       4.80330092      15.86914603 
Ir       8.32908260       1.60220718      13.70593219 
Ir       2.77248084       1.60069256      13.66447323 
Ir       5.53332158       1.60220718      13.70593219 
Ir       9.70819127       3.99089347      13.70593219 
Ir       4.15421291       3.99089347      13.70593219 
Ir       6.93120209       4.00173139      13.70571065 
Ir      11.08992334       6.40277023      13.70216478 
Ir       5.55209342       6.41209353      13.70593219 
Ir       8.31031076       6.41209353      13.70593219 
C       2.77248084       1.60069256      16.82843058 
