46
Lattice="8.267761186209963 0.0 0.0 4.133880593104982 7.160091219680793 0.0 0.0 0.0 23.000798320623197" Properties=species:S:1:pos:R:3 pbc="T T T"
Pt       8.26776119       1.59113138       7.00000000 
Pt       2.75592040       1.59113138       7.00000000 
Pt       5.51184079       1.59113138       7.00000000 
Pt       9.64572138       3.97782846       7.00000000 
Pt       4.13388059       3.97782846       7.00000000 
Pt       6.88980099       3.97782846       7.00000000 
Pt      11.02368158       6.36452553       7.00000000 
Pt       5.51184079       6.36452553       7.00000000 
Pt       8.26776119       6.36452553       7.00000000 
Pt       0.00000000       0.00000000       9.25019958 
Pt       2.75592040       0.00000000       9.25019958 
Pt       5.51184079       0.00000000       9.25019958 
Pt       1.37796020       2.38669707       9.25019958 
Pt       4.13388059       2.38669707       9.25019958 
Pt       6.88980099       2.38669707       9.25019958 
Pt       2.75592040       4.77339415       9.25019958 
Pt       5.51184079       4.77339415       9.25019958 
Pt       8.26776119       4.77339415       9.25019958 
Pt       1.37796020       0.79556569      11.50039916 
Pt       4.13388059       0.79556569      11.50039916 
Pt       6.88980099       0.79556569      11.50039916 
Pt       2.75592040       3.18226276      11.50039916 
Pt       5.51184079       3.18226276      11.50039916 
Pt       8.26776119       3.18226276      11.50039916 
Pt       4.13388059       5.56895984      11.50039916 
Pt       6.88980099       5.56895984      11.50039916 
Pt       9.64572138       5.56895984      11.50039916 
Pt      12.32922913       7.11828376      16.54964774 
Pt       6.96221363       7.11828376      16.54964774 
Pt       5.51184079       0.00566659      16.45388876 
Pt       9.64572138       2.47031199      16.54964774 
Pt       4.17159948       2.40847408      16.39439773 
Pt       6.85208211       2.40847408      16.39439773 
Pt       2.76082781       4.77056085      16.45388876 
Pt       5.51184079       4.72984013      16.39439773 
Pt       8.26285377       4.77056085      16.45388876 
Au       8.27014902       1.58975277      13.96497729 
Au       2.75353257       1.58975277      13.96497729 
Au       5.51184079       1.58535114      13.94266495 
Au       9.64572138       3.97409614      13.98649268 
Au       4.12887476       3.98071857      13.94266495 
Au       6.89480682       3.98071857      13.94266495 
Au      11.02691386       6.36639169      13.98649268 
Au       5.51184079       6.36728276      13.96497729 
Au       8.26452890       6.36639169      13.98649268 
C       1.37796020       0.79556569      17.47911514 
