46
Lattice="8.267761186209963 0.0 0.0 4.133880593104982 7.160091219680793 0.0 0.0 0.0 23.000798320623197" Properties=species:S:1:pos:R:3 pbc="T T T"
Pt       8.26776119       1.59113138       7.00000000 
Pt       2.75592040       1.59113138       7.00000000 
Pt       5.51184079       1.59113138       7.00000000 
Pt       9.64572138       3.97782846       7.00000000 
Pt       4.13388059       3.97782846       7.00000000 
Pt       6.88980099       3.97782846       7.00000000 
Pt      11.02368158       6.36452553       7.00000000 
Pt       5.51184079       6.36452553       7.00000000 
Pt       8.26776119       6.36452553       7.00000000 
Pt       0.00000000       0.00000000       9.25019958 
Pt       2.75592040       0.00000000       9.25019958 
Pt       5.51184079       0.00000000       9.25019958 
Pt       1.37796020       2.38669707       9.25019958 
Pt       4.13388059       2.38669707       9.25019958 
Pt       6.88980099       2.38669707       9.25019958 
Pt       2.75592040       4.77339415       9.25019958 
Pt       5.51184079       4.77339415       9.25019958 
Pt       8.26776119       4.77339415       9.25019958 
Pt       1.37796020       0.79556569      11.50039916 
Pt       4.13388059       0.79556569      11.50039916 
Pt       6.88980099       0.79556569      11.50039916 
Pt       2.75592040       3.18226276      11.50039916 
Pt       5.51184079       3.18226276      11.50039916 
Pt       8.26776119       3.18226276      11.50039916 
Pt       4.13388059       5.56895984      11.50039916 
Pt       6.88980099       5.56895984      11.50039916 
Pt       9.64572138       5.56895984      11.50039916 
Pt      12.30390518       7.10366297      16.54126893 
Pt       6.98753758       7.10366297      16.54126893 
Pt       5.51184079       0.00472710      16.42009476 
Pt       9.64572138       2.49955357      16.54126893 
Pt       4.16351829       2.40380840      16.40855700 
Pt       6.86016330       2.40380840      16.40855700 
Pt       2.76001418       4.77103060      16.42009476 
Pt       5.51184079       4.73917149      16.40855700 
Pt       8.26366740       4.77103060      16.42009476 
Au       8.27348449       1.58782703      13.99117189 
Au       2.75019709       1.58782703      13.99117189 
Au       5.51184079       1.58872116      13.93691127 
Au       9.64572138       3.97255596      13.97609380 
Au       4.13179328       3.97903357      13.93691127 
Au       6.89188830       3.97903357      13.93691127 
Au      11.02824770       6.36716178      13.97609380 
Au       5.51184079       6.37113423      13.99117189 
Au       8.26319507       6.36716178      13.97609380 
O       1.37796020       0.79556569      17.63518437 
