46
Lattice="8.436491006336698 0.0 0.0 4.218245503168349 7.306215530286524 0.0 0.0 0.0 23.184488082268565" Properties=species:S:1:pos:R:3 pbc="T T T"
Pt       8.43649101       1.62360345       7.00000000 
Pt       2.81216367       1.62360345       7.00000000 
Pt       5.62432734       1.62360345       7.00000000 
Pt       9.84257284       4.05900863       7.00000000 
Pt       4.21824550       4.05900863       7.00000000 
Pt       7.03040917       4.05900863       7.00000000 
Pt      11.24865468       6.49441380       7.00000000 
Pt       5.62432734       6.49441380       7.00000000 
Pt       8.43649101       6.49441380       7.00000000 
Pt       0.00000000       0.00000000       9.29612202 
Pt       2.81216367       0.00000000       9.29612202 
Pt       5.62432734       0.00000000       9.29612202 
Pt       1.40608183       2.43540518       9.29612202 
Pt       4.21824550       2.43540518       9.29612202 
Pt       7.03040917       2.43540518       9.29612202 
Pt       2.81216367       4.87081035       9.29612202 
Pt       5.62432734       4.87081035       9.29612202 
Pt       8.43649101       4.87081035       9.29612202 
Pt       1.40608183       0.81180173      11.59224404 
Pt       4.21824550       0.81180173      11.59224404 
Pt       7.03040917       0.81180173      11.59224404 
Pt       2.81216367       3.24720690      11.59224404 
Pt       5.62432734       3.24720690      11.59224404 
Pt       8.43649101       3.24720690      11.59224404 
Pt       4.21824550       5.68261208      11.59224404 
Pt       7.03040917       5.68261208      11.59224404 
Pt       9.84257284       5.68261208      11.59224404 
Pt      12.55360475       7.24782708      15.76089874 
Pt       7.13154093       7.24782708      15.76089874 
Pt       9.84257284       7.30302769      15.63306094 
Pt       9.84257284       2.55218207      15.76089874 
Pt       4.24573415       2.45127576      15.64358268 
Pt       7.00292052       2.45127576      15.64358268 
Pt      11.24589392       4.87240427      15.63306094 
Pt       5.62432734       4.83906920      15.64358268 
Pt       8.43925176       4.87240427      15.63306094 
Ni       8.44442047       1.61902537      13.62519976 
Ni       2.80423421       1.61902537      13.62519976 
Ni       5.62432734       1.62349608      13.60491519 
Ni       9.84257284       4.02980740      13.61050026 
Ni       4.21815252       4.05906231      13.60491519 
Ni       7.03050216       4.05906231      13.60491519 
Ni      11.27394368       6.50901442      13.61050026 
Ni       5.62432734       6.50356996      13.62519976 
Ni       8.41120200       6.50901442      13.61050026 
N       1.40608183       0.81180173      16.63153373 
