46
Lattice="8.072811846636833 0.0 0.0 4.036405923318417 6.991260139159463 0.0 0.0 0.0 22.78856436166909" Properties=species:S:1:pos:R:3 pbc="T T T"
Rh       8.07281185       1.55361336       7.00000000 
Rh       2.69093728       1.55361336       7.00000000 
Rh       5.38187456       1.55361336       7.00000000 
Rh       9.41828049       3.88403341       7.00000000 
Rh       4.03640592       3.88403341       7.00000000 
Rh       6.72734321       3.88403341       7.00000000 
Rh      10.76374913       6.21445346       7.00000000 
Rh       5.38187456       6.21445346       7.00000000 
Rh       8.07281185       6.21445346       7.00000000 
Rh       0.00000000       0.00000000       9.19714109 
Rh       2.69093728       0.00000000       9.19714109 
Rh       5.38187456       0.00000000       9.19714109 
Rh       1.34546864       2.33042005       9.19714109 
Rh       4.03640592       2.33042005       9.19714109 
Rh       6.72734321       2.33042005       9.19714109 
Rh       2.69093728       4.66084009       9.19714109 
Rh       5.38187456       4.66084009       9.19714109 
Rh       8.07281185       4.66084009       9.19714109 
Rh       1.34546864       0.77680668      11.39428218 
Rh       4.03640592       0.77680668      11.39428218 
Rh       6.72734321       0.77680668      11.39428218 
Rh       2.69093728       3.10722673      11.39428218 
Rh       5.38187456       3.10722673      11.39428218 
Rh       8.07281185       3.10722673      11.39428218 
Rh       4.03640592       5.43764677      11.39428218 
Rh       6.72734321       5.43764677      11.39428218 
Rh       9.41828049       5.43764677      11.39428218 
Rh      12.07251583       6.97007026      15.95822757 
Rh       6.72734321       6.95615330      16.10185104 
Rh       9.45498243       6.97007026      15.95822757 
Rh       9.38787707       2.34797347      16.10185104 
Rh       4.06680934       2.34797347      16.10185104 
Rh       6.72734321       2.33038440      15.99946764 
Rh      10.76374913       4.70321984      15.95822757 
Rh       5.38184369       4.66085792      15.99946764 
Rh       8.07284272       4.66085792      15.99946764 
Pt       8.07775556       1.55659204      13.71634829 
Pt       2.69093728       1.55361336      13.68242868 
Pt       5.37693085       1.55659204      13.71634829 
Pt       9.41817274       3.87826269      13.71634829 
Pt       4.03651367       3.87826269      13.71634829 
Pt       6.72734321       3.88403341      13.71009084 
Pt      10.76374913       6.21445346      13.66499529 
Pt       5.38692603       6.21724550      13.71634829 
Pt       8.06776038       6.21724550      13.71634829 
N       2.69093728       1.55361336      17.13976765 
