46
Lattice="8.317442508656132 0.0 0.0 4.158721254328066 7.20311650701278 0.0 0.0 0.0 23.05488449384088" Properties=species:S:1:pos:R:3 pbc="T T T"
Rh       8.31744251       1.60069256       7.00000000 
Rh       2.77248084       1.60069256       7.00000000 
Rh       5.54496167       1.60069256       7.00000000 
Rh       9.70368293       4.00173139       7.00000000 
Rh       4.15872125       4.00173139       7.00000000 
Rh       6.93120209       4.00173139       7.00000000 
Rh      11.08992334       6.40277023       7.00000000 
Rh       5.54496167       6.40277023       7.00000000 
Rh       8.31744251       6.40277023       7.00000000 
Rh       0.00000000       0.00000000       9.26372112 
Rh       2.77248084       0.00000000       9.26372112 
Rh       5.54496167       0.00000000       9.26372112 
Rh       1.38624042       2.40103884       9.26372112 
Rh       4.15872125       2.40103884       9.26372112 
Rh       6.93120209       2.40103884       9.26372112 
Rh       2.77248084       4.80207767       9.26372112 
Rh       5.54496167       4.80207767       9.26372112 
Rh       8.31744251       4.80207767       9.26372112 
Rh       1.38624042       0.80034628      11.52744225 
Rh       4.15872125       0.80034628      11.52744225 
Rh       6.93120209       0.80034628      11.52744225 
Rh       2.77248084       3.20138511      11.52744225 
Rh       5.54496167       3.20138511      11.52744225 
Rh       8.31744251       3.20138511      11.52744225 
Rh       4.15872125       5.60242395      11.52744225 
Rh       6.93120209       5.60242395      11.52744225 
Rh       9.70368293       5.60242395      11.52744225 
Rh      12.41107344       7.16553659      15.64978195 
Rh       6.93120209       7.12487899      15.73711177 
Rh       9.76877325       7.16553659      15.64978195 
Rh       9.63592725       2.44015760      15.73711177 
Rh       4.22647694       2.44015760      15.73711177 
Rh       6.93120209       2.38123528      15.69565461 
Rh      11.08992334       4.87723750      15.64978195 
Rh       5.52781129       4.81197945      15.69565461 
Rh       8.33459289       4.81197945      15.69565461 
Cu       8.31406441       1.60222672      13.62579271 
Cu       2.77248084       1.60069256      13.64524284 
Cu       5.54833977       1.60222672      13.62579271 
Cu       9.70066525       4.00388983      13.62579271 
Cu       4.16173893       4.00388983      13.62579271 
Cu       6.93120209       4.00173139      13.64527062 
Cu      11.08992334       6.40277023      13.57433720 
Cu       5.54460125       6.39907763      13.62579271 
Cu       8.31780293       6.39907763      13.62579271 
N       2.77248084       1.60069256      16.58524156 
