45
Lattice="8.235898954649699 0.0 0.0 4.117949477324849 7.13249771772834 0.0 0.0 0.0 22.966111116450286" Properties=species:S:1:pos:R:3 pbc="T T T"
Rh       8.23589895       1.58499949       7.00000000 
Rh       2.74529965       1.58499949       7.00000000 
Rh       5.49059930       1.58499949       7.00000000 
Rh       9.60854878       3.96249873       7.00000000 
Rh       4.11794948       3.96249873       7.00000000 
Rh       6.86324913       3.96249873       7.00000000 
Rh      10.98119861       6.33999797       7.00000000 
Rh       5.49059930       6.33999797       7.00000000 
Rh       8.23589895       6.33999797       7.00000000 
Rh       0.00000000       0.00000000       9.24152778 
Rh       2.74529965       0.00000000       9.24152778 
Rh       5.49059930       0.00000000       9.24152778 
Rh       1.37264983       2.37749924       9.24152778 
Rh       4.11794948       2.37749924       9.24152778 
Rh       6.86324913       2.37749924       9.24152778 
Rh       2.74529965       4.75499848       9.24152778 
Rh       5.49059930       4.75499848       9.24152778 
Rh       8.23589895       4.75499848       9.24152778 
Rh       1.37264983       0.79249975      11.48305556 
Rh       4.11794948       0.79249975      11.48305556 
Rh       6.86324913       0.79249975      11.48305556 
Rh       2.74529965       3.16999899      11.48305556 
Rh       5.49059930       3.16999899      11.48305556 
Rh       8.23589895       3.16999899      11.48305556 
Rh       4.11794948       5.54749822      11.48305556 
Rh       6.86324913       5.54749822      11.48305556 
Rh       9.60854878       5.54749822      11.48305556 
Rh       0.00000000       0.00000000      15.95974510 
Rh       2.74529965       0.00000000      15.95974510 
Rh       5.49059930       0.00000000      15.95974510 
Rh       1.37264983       2.37749924      15.95974510 
Rh       4.11794948       2.37749924      15.95974510 
Rh       6.86324913       2.37749924      15.95974510 
Rh       2.74529965       4.75499848      15.95974510 
Rh       5.49059930       4.75499848      15.95974510 
Rh       8.23589895       4.75499848      15.95974510 
Pd       8.23589895       1.58499949      13.73308939 
Pd       2.74529965       1.58499949      13.73308939 
Pd       5.49059930       1.58499949      13.73308939 
Pd       9.60854878       3.96249873      13.73308939 
Pd       4.11794948       3.96249873      13.73308939 
Pd       6.86324913       3.96249873      13.73308939 
Pd      10.98119861       6.33999797      13.73308939 
Pd       5.49059930       6.33999797      13.73308939 
Pd       8.23589895       6.33999797      13.73308939 
