46
Lattice="8.436491006336698 0.0 0.0 4.218245503168349 7.306215530286524 0.0 0.0 0.0 23.184488082268565" Properties=species:S:1:pos:R:3 pbc="T T T"
Pt       8.43649101       1.62360345       7.00000000 
Pt       2.81216367       1.62360345       7.00000000 
Pt       5.62432734       1.62360345       7.00000000 
Pt       9.84257284       4.05900863       7.00000000 
Pt       4.21824550       4.05900863       7.00000000 
Pt       7.03040917       4.05900863       7.00000000 
Pt      11.24865468       6.49441380       7.00000000 
Pt       5.62432734       6.49441380       7.00000000 
Pt       8.43649101       6.49441380       7.00000000 
Pt       0.00000000       0.00000000       9.29612202 
Pt       2.81216367       0.00000000       9.29612202 
Pt       5.62432734       0.00000000       9.29612202 
Pt       1.40608183       2.43540518       9.29612202 
Pt       4.21824550       2.43540518       9.29612202 
Pt       7.03040917       2.43540518       9.29612202 
Pt       2.81216367       4.87081035       9.29612202 
Pt       5.62432734       4.87081035       9.29612202 
Pt       8.43649101       4.87081035       9.29612202 
Pt       1.40608183       0.81180173      11.59224404 
Pt       4.21824550       0.81180173      11.59224404 
Pt       7.03040917       0.81180173      11.59224404 
Pt       2.81216367       3.24720690      11.59224404 
Pt       5.62432734       3.24720690      11.59224404 
Pt       8.43649101       3.24720690      11.59224404 
Pt       4.21824550       5.68261208      11.59224404 
Pt       7.03040917       5.68261208      11.59224404 
Pt       9.84257284       5.68261208      11.59224404 
Pt      12.60961357       7.28016379      15.97019289 
Pt       7.07553211       7.28016379      15.97019289 
Pt       9.84257284       7.29773286      15.89932188 
Pt       9.84257284       2.48750866      15.97019289 
Pt       4.23415400       2.44458995      15.90434765 
Pt       7.01450067       2.44458995      15.90434765 
Pt      11.24130847       4.87505169      15.89932188 
Pt       5.62432734       4.85244080      15.90434765 
Pt       8.44383721       4.87505169      15.89932188 
Ru       8.44257046       1.62009348      13.70776761 
Ru       2.80608421       1.62009348      13.70776761 
Ru       5.62432734       1.61828886      13.72283361 
Ru       9.84257284       4.00480042      13.75166013 
Ru       4.21364293       4.06166593      13.72283361 
Ru       7.03501175       4.06166593      13.72283361 
Ru      11.29560036       6.52151791      13.75166013 
Ru       5.62432734       6.50143376      13.70776761 
Ru       8.38954532       6.52151791      13.75166013 
O       1.40608183       0.81180173      17.23399775 
