46
Lattice="8.059040234966444 0.0 0.0 4.029520117483222 6.979333573601851 0.0 0.0 0.0 22.773571729878775" Properties=species:S:1:pos:R:3 pbc="T T T"
Ir       8.05904023       1.55096302       7.00000000 
Ir       2.68634674       1.55096302       7.00000000 
Ir       5.37269349       1.55096302       7.00000000 
Ir       9.40221361       3.87740754       7.00000000 
Ir       4.02952012       3.87740754       7.00000000 
Ir       6.71586686       3.87740754       7.00000000 
Ir      10.74538698       6.20385207       7.00000000 
Ir       5.37269349       6.20385207       7.00000000 
Ir       8.05904023       6.20385207       7.00000000 
Ir       0.00000000       0.00000000       9.19339293 
Ir       2.68634674       0.00000000       9.19339293 
Ir       5.37269349       0.00000000       9.19339293 
Ir       1.34317337       2.32644452       9.19339293 
Ir       4.02952012       2.32644452       9.19339293 
Ir       6.71586686       2.32644452       9.19339293 
Ir       2.68634674       4.65288905       9.19339293 
Ir       5.37269349       4.65288905       9.19339293 
Ir       8.05904023       4.65288905       9.19339293 
Ir       1.34317337       0.77548151      11.38678586 
Ir       4.02952012       0.77548151      11.38678586 
Ir       6.71586686       0.77548151      11.38678586 
Ir       2.68634674       3.10192603      11.38678586 
Ir       5.37269349       3.10192603      11.38678586 
Ir       8.05904023       3.10192603      11.38678586 
Ir       4.02952012       5.42837056      11.38678586 
Ir       6.71586686       5.42837056      11.38678586 
Ir       9.40221361       5.42837056      11.38678586 
Ir       8.05904023       1.54205038      13.65410382 
Ir       2.68270484       1.54886036      13.64839524 
Ir       5.37633539       1.54886036      13.64839524 
Ir       9.40155215       3.87778943      13.66314686 
Ir       4.02952012       3.88161285      13.64839524 
Ir       6.71652832       3.87778943      13.66314686 
Ir      10.75310555       6.20830838      13.65410382 
Ir       5.36497492       6.20830838      13.65410382 
Ir       8.05904023       6.20308828      13.66314686 
Ir       0.00000000       0.00000000      16.00126129 
Ir       2.69119058       0.00174146      15.86677280 
Ir       5.36784966       0.00174146      15.86677280 
Ir       1.34710344       2.32976868      15.86677280 
Ir       4.02952012       2.32644452      15.86760272 
Ir       6.71193680       2.32976868      15.86677280 
Ir       2.68543298       4.64782344      15.86677280 
Ir       5.37360726       4.64782344      15.86677280 
Ir       8.05904023       4.65288905      15.88061299 
H       0.00000000       0.00000000      17.59439645 
