46
Lattice="8.35212609627333 0.0 0.0 4.176063048136665 7.233153374983659 0.0 0.0 0.0 23.09264320144588" Properties=species:S:1:pos:R:3 pbc="T T T"
Pt       8.35212610       1.60736742       7.00000000 
Pt       2.78404203       1.60736742       7.00000000 
Pt       5.56808406       1.60736742       7.00000000 
Pt       9.74414711       4.01841854       7.00000000 
Pt       4.17606305       4.01841854       7.00000000 
Pt       6.96010508       4.01841854       7.00000000 
Pt      11.13616813       6.42946967       7.00000000 
Pt       5.56808406       6.42946967       7.00000000 
Pt       8.35212610       6.42946967       7.00000000 
Pt       0.00000000       0.00000000       9.27316080 
Pt       2.78404203       0.00000000       9.27316080 
Pt       5.56808406       0.00000000       9.27316080 
Pt       1.39202102       2.41105112       9.27316080 
Pt       4.17606305       2.41105112       9.27316080 
Pt       6.96010508       2.41105112       9.27316080 
Pt       2.78404203       4.82210225       9.27316080 
Pt       5.56808406       4.82210225       9.27316080 
Pt       8.35212610       4.82210225       9.27316080 
Pt       1.39202102       0.80368371      11.54632160 
Pt       4.17606305       0.80368371      11.54632160 
Pt       6.96010508       0.80368371      11.54632160 
Pt       2.78404203       3.21473483      11.54632160 
Pt       5.56808406       3.21473483      11.54632160 
Pt       8.35212610       3.21473483      11.54632160 
Pt       4.17606305       5.62578596      11.54632160 
Pt       6.96010508       5.62578596      11.54632160 
Pt       9.74414711       5.62578596      11.54632160 
Pt      12.41973004       7.17053448      15.85541144 
Pt       7.06856418       7.17053448      15.85541144 
Pt       5.56808406       0.00008854      15.72379702 
Pt       9.74414711       2.53628891      15.85541144 
Pt       4.20144740       2.42570679      15.75243829 
Pt       6.93472073       2.42570679      15.75243829 
Pt       2.78411871       4.82205798      15.72379702 
Pt       5.56808406       4.79279092      15.75243829 
Pt       8.35204942       4.82205798      15.72379702 
Cu       8.36757065       1.59845050      13.68548453 
Cu       2.76859748       1.59845050      13.68548453 
Cu       5.56808406       1.61444809      13.64210831 
Cu       9.74414711       4.00045747      13.64846197 
Cu       4.18219509       4.01487820      13.64210831 
Cu       6.95397304       4.01487820      13.64210831 
Cu      11.15172287       6.43845020      13.64846197 
Cu       5.56808406       6.44730350      13.68548453 
Cu       8.33657135       6.43845020      13.64846197 
O       1.39202102       0.80368371      16.92508769 
