46
Lattice="8.520855916400066 0.0 0.0 4.260427958200033 7.37927768558939 0.0 0.0 0.0 23.276332963091257" Properties=species:S:1:pos:R:3 pbc="T T T"
Pt       8.52085592       1.63983949       7.00000000 
Pt       2.84028531       1.63983949       7.00000000 
Pt       5.68057061       1.63983949       7.00000000 
Pt       9.94099857       4.09959871       7.00000000 
Pt       4.26042796       4.09959871       7.00000000 
Pt       7.10071326       4.09959871       7.00000000 
Pt      11.36114122       6.55935794       7.00000000 
Pt       5.68057061       6.55935794       7.00000000 
Pt       8.52085592       6.55935794       7.00000000 
Pt       0.00000000       0.00000000       9.31908324 
Pt       2.84028531       0.00000000       9.31908324 
Pt       5.68057061       0.00000000       9.31908324 
Pt       1.42014265       2.45975923       9.31908324 
Pt       4.26042796       2.45975923       9.31908324 
Pt       7.10071326       2.45975923       9.31908324 
Pt       2.84028531       4.91951846       9.31908324 
Pt       5.68057061       4.91951846       9.31908324 
Pt       8.52085592       4.91951846       9.31908324 
Pt       1.42014265       0.81991974      11.63816648 
Pt       4.26042796       0.81991974      11.63816648 
Pt       7.10071326       0.81991974      11.63816648 
Pt       2.84028531       3.27967897      11.63816648 
Pt       5.68057061       3.27967897      11.63816648 
Pt       8.52085592       3.27967897      11.63816648 
Pt       4.26042796       5.73943820      11.63816648 
Pt       7.10071326       5.73943820      11.63816648 
Pt       9.94099857       5.73943820      11.63816648 
Pt       0.00000000       0.00000000      15.77116406 
Pt       7.10802241       7.37635713      15.69022221 
Pt       9.93368942       7.37635713      15.69022221 
Pt       9.94212387       2.46754941      15.69022221 
Pt       4.26042796       2.45975923      15.68177093 
Pt       7.09958796       2.46754941      15.69022221 
Pt      11.35495737       4.91464882      15.69022221 
Pt       5.68675446       4.91464882      15.69022221 
Pt       8.52085592       4.91951846      15.68091584 
Co       8.52085592       1.59391735      13.66725313 
Co       2.82828570       1.63291151      13.66416955 
Co       5.69257022       1.63291151      13.66416955 
Co       9.95159505       4.09348083      13.66562499 
Co       4.26042796       4.11345466      13.66416955 
Co       7.09011679       4.09348083      13.66562499 
Co      11.40091096       6.58231901      13.66725313 
Co       5.64080088       6.58231901      13.66725313 
Co       8.52085592       6.57159370      13.66562499 
H       0.00000000       0.00000000      17.35523129 
