46
Lattice="8.267761186209963 0.0 0.0 4.133880593104982 7.160091219680793 0.0 0.0 0.0 23.000798320623197" Properties=species:S:1:pos:R:3 pbc="T T T"
Pt       8.26776119       1.59113138       7.00000000 
Pt       2.75592040       1.59113138       7.00000000 
Pt       5.51184079       1.59113138       7.00000000 
Pt       9.64572138       3.97782846       7.00000000 
Pt       4.13388059       3.97782846       7.00000000 
Pt       6.88980099       3.97782846       7.00000000 
Pt      11.02368158       6.36452553       7.00000000 
Pt       5.51184079       6.36452553       7.00000000 
Pt       8.26776119       6.36452553       7.00000000 
Pt       0.00000000       0.00000000       9.25019958 
Pt       2.75592040       0.00000000       9.25019958 
Pt       5.51184079       0.00000000       9.25019958 
Pt       1.37796020       2.38669707       9.25019958 
Pt       4.13388059       2.38669707       9.25019958 
Pt       6.88980099       2.38669707       9.25019958 
Pt       2.75592040       4.77339415       9.25019958 
Pt       5.51184079       4.77339415       9.25019958 
Pt       8.26776119       4.77339415       9.25019958 
Pt       1.37796020       0.79556569      11.50039916 
Pt       4.13388059       0.79556569      11.50039916 
Pt       6.88980099       0.79556569      11.50039916 
Pt       2.75592040       3.18226276      11.50039916 
Pt       5.51184079       3.18226276      11.50039916 
Pt       8.26776119       3.18226276      11.50039916 
Pt       4.13388059       5.56895984      11.50039916 
Pt       6.88980099       5.56895984      11.50039916 
Pt       9.64572138       5.56895984      11.50039916 
Pt      12.39137645       7.15416453      16.07957711 
Pt       6.90006632       7.15416453      16.07957711 
Pt       9.64572138       7.15673310      15.95964708 
Pt       9.64572138       2.39855045      16.07957711 
Pt       4.15324787       2.39787878      15.98774876 
Pt       6.87043371       2.39787878      15.98774876 
Pt      11.02077336       4.77507321      15.95964708 
Pt       5.51184079       4.75103074      15.98774876 
Pt       8.27066940       4.77507321      15.95964708 
Mo       8.27440687       1.58729450      13.72637389 
Mo       2.74927471       1.58729450      13.72637389 
Mo       5.51184079       1.58639521      13.74671184 
Mo       9.64572138       3.97283306      13.71589294 
Mo       4.12977895       3.98019654      13.74671184 
Mo       6.89390263       3.98019654      13.74671184 
Mo      11.02800773       6.36702323      13.71589294 
Mo       5.51184079       6.37219930      13.72637389 
Mo       8.26343504       6.36702323      13.71589294 
N       1.37796020       0.79556569      17.29810770 
