46
Lattice="8.520855916400066 0.0 0.0 4.260427958200033 7.37927768558939 0.0 0.0 0.0 23.276332963091257" Properties=species:S:1:pos:R:3 pbc="T T T"
Pt       8.52085592       1.63983949       7.00000000 
Pt       2.84028531       1.63983949       7.00000000 
Pt       5.68057061       1.63983949       7.00000000 
Pt       9.94099857       4.09959871       7.00000000 
Pt       4.26042796       4.09959871       7.00000000 
Pt       7.10071326       4.09959871       7.00000000 
Pt      11.36114122       6.55935794       7.00000000 
Pt       5.68057061       6.55935794       7.00000000 
Pt       8.52085592       6.55935794       7.00000000 
Pt       0.00000000       0.00000000       9.31908324 
Pt       2.84028531       0.00000000       9.31908324 
Pt       5.68057061       0.00000000       9.31908324 
Pt       1.42014265       2.45975923       9.31908324 
Pt       4.26042796       2.45975923       9.31908324 
Pt       7.10071326       2.45975923       9.31908324 
Pt       2.84028531       4.91951846       9.31908324 
Pt       5.68057061       4.91951846       9.31908324 
Pt       8.52085592       4.91951846       9.31908324 
Pt       1.42014265       0.81991974      11.63816648 
Pt       4.26042796       0.81991974      11.63816648 
Pt       7.10071326       0.81991974      11.63816648 
Pt       2.84028531       3.27967897      11.63816648 
Pt       5.68057061       3.27967897      11.63816648 
Pt       8.52085592       3.27967897      11.63816648 
Pt       4.26042796       5.73943820      11.63816648 
Pt       7.10071326       5.73943820      11.63816648 
Pt       9.94099857       5.73943820      11.63816648 
Pt       0.00000000       0.00000000      16.04454820 
Pt       7.10539349       7.37447097      15.95211483 
Pt       9.93631834       7.37447097      15.95211483 
Pt       9.93917594       2.46621579      15.95211483 
Pt       4.26042796       2.45975923      15.94964948 
Pt       7.10253589       2.46621579      15.95211483 
Pt      11.35463836       4.91786862      15.95211483 
Pt       5.68707347       4.91786862      15.95211483 
Pt       8.52085592       4.91951846      15.95663816 
Os       8.52085592       1.59653675      13.76836915 
Os       2.83049594       1.63418759      13.76410678 
Os       5.69035998       1.63418759      13.76410678 
Os       9.94885879       4.09506061      13.77663206 
Os       4.26042796       4.11090250      13.76410678 
Os       7.09285304       4.09506061      13.77663206 
Os      11.39864249       6.58100931      13.76836915 
Os       5.64306934       6.58100931      13.76836915 
Os       8.52085592       6.56843415      13.77663206 
H       0.00000000       0.00000000      17.63640191 
