46
Lattice="8.267761186209963 0.0 0.0 4.133880593104982 7.160091219680793 0.0 0.0 0.0 23.000798320623197" Properties=species:S:1:pos:R:3 pbc="T T T"
Pt       8.26776119       1.59113138       7.00000000 
Pt       2.75592040       1.59113138       7.00000000 
Pt       5.51184079       1.59113138       7.00000000 
Pt       9.64572138       3.97782846       7.00000000 
Pt       4.13388059       3.97782846       7.00000000 
Pt       6.88980099       3.97782846       7.00000000 
Pt      11.02368158       6.36452553       7.00000000 
Pt       5.51184079       6.36452553       7.00000000 
Pt       8.26776119       6.36452553       7.00000000 
Pt       0.00000000       0.00000000       9.25019958 
Pt       2.75592040       0.00000000       9.25019958 
Pt       5.51184079       0.00000000       9.25019958 
Pt       1.37796020       2.38669707       9.25019958 
Pt       4.13388059       2.38669707       9.25019958 
Pt       6.88980099       2.38669707       9.25019958 
Pt       2.75592040       4.77339415       9.25019958 
Pt       5.51184079       4.77339415       9.25019958 
Pt       8.26776119       4.77339415       9.25019958 
Pt       1.37796020       0.79556569      11.50039916 
Pt       4.13388059       0.79556569      11.50039916 
Pt       6.88980099       0.79556569      11.50039916 
Pt       2.75592040       3.18226276      11.50039916 
Pt       5.51184079       3.18226276      11.50039916 
Pt       8.26776119       3.18226276      11.50039916 
Pt       4.13388059       5.56895984      11.50039916 
Pt       6.88980099       5.56895984      11.50039916 
Pt       9.64572138       5.56895984      11.50039916 
Pt       8.27253779       1.58837361      13.83694168 
Pt       2.75114379       1.58837361      13.83694168 
Pt       5.51184079       1.58311114      13.81365664 
Pt       9.64572138       3.96803598      13.86745287 
Pt       4.12693486       3.98183858      13.81365664 
Pt       6.89674672       3.98183858      13.81365664 
Pt      11.03216212       6.36942177      13.86745287 
Pt       5.51184079       6.37004108      13.83694168 
Pt       8.25928065       6.36942177      13.86745287 
Pt      12.35370639       7.13241571      16.30604292 
Pt       6.93773638       7.13241571      16.30604292 
Pt       5.51184079       0.00270670      16.21527660 
Pt       9.64572138       2.44204809      16.30604292 
Pt       4.16276939       2.40337603      16.15995522 
Pt       6.86091219       2.40337603      16.15995522 
Pt       2.75826447       4.77204079      16.21527660 
Pt       5.51184079       4.74003624      16.15995522 
Pt       8.26541711       4.77204079      16.21527660 
N       1.37796020       0.79556569      17.36117154 
