46
Lattice="8.605220826463434 0.0 0.0 4.302610413231717 7.452339840892254 0.0 0.0 0.0 23.36817784391394" Properties=species:S:1:pos:R:3 pbc="T T T"
Pt       8.60522083       1.65607552       7.00000000 
Pt       2.86840694       1.65607552       7.00000000 
Pt       5.73681388       1.65607552       7.00000000 
Pt      10.03942430       4.14018880       7.00000000 
Pt       4.30261041       4.14018880       7.00000000 
Pt       7.17101736       4.14018880       7.00000000 
Pt      11.47362777       6.62430208       7.00000000 
Pt       5.73681388       6.62430208       7.00000000 
Pt       8.60522083       6.62430208       7.00000000 
Pt       0.00000000       0.00000000       9.34204446 
Pt       2.86840694       0.00000000       9.34204446 
Pt       5.73681388       0.00000000       9.34204446 
Pt       1.43420347       2.48411328       9.34204446 
Pt       4.30261041       2.48411328       9.34204446 
Pt       7.17101736       2.48411328       9.34204446 
Pt       2.86840694       4.96822656       9.34204446 
Pt       5.73681388       4.96822656       9.34204446 
Pt       8.60522083       4.96822656       9.34204446 
Pt       1.43420347       0.82803776      11.68408892 
Pt       4.30261041       0.82803776      11.68408892 
Pt       7.17101736       0.82803776      11.68408892 
Pt       2.86840694       3.31215104      11.68408892 
Pt       5.73681388       3.31215104      11.68408892 
Pt       8.60522083       3.31215104      11.68408892 
Pt       4.30261041       5.79626432      11.68408892 
Pt       7.17101736       5.79626432      11.68408892 
Pt      10.03942430       5.79626432      11.68408892 
Pt       0.00000000       0.00000000      16.20551543 
Pt       7.18120029       7.44996230      16.11202696 
Pt      10.02924136       7.44996230      16.11202696 
Pt      10.04245676       2.49412073      16.11202696 
Pt       4.30261041       2.48411328      16.11088093 
Pt       7.16798490       2.49412073      16.11202696 
Pt      11.46647729       4.96059665      16.11202696 
Pt       5.74396436       4.96059665      16.11202696 
Pt       8.60522083       4.96822656      16.11606980 
Pd       8.60522083       1.63995514      13.89449765 
Pd       2.86734446       1.65546210      13.87753991 
Pd       5.73787636       1.65546210      13.87753991 
Pd      10.03906707       4.14039505      13.87579074 
Pd       4.30261041       4.14141564      13.87753991 
Pd       7.17137459       4.14039505      13.87579074 
Pd      11.48758843       6.63236227      13.89449765 
Pd       5.72285323       6.63236227      13.89449765 
Pd       8.60522083       6.62388958      13.87579074 
H       0.00000000       0.00000000      17.76468794 
