46
Lattice="8.605220826463434 0.0 0.0 4.302610413231717 7.452339840892254 0.0 0.0 0.0 23.36817784391394" Properties=species:S:1:pos:R:3 pbc="T T T"
Pt       8.60522083       1.65607552       7.00000000 
Pt       2.86840694       1.65607552       7.00000000 
Pt       5.73681388       1.65607552       7.00000000 
Pt      10.03942430       4.14018880       7.00000000 
Pt       4.30261041       4.14018880       7.00000000 
Pt       7.17101736       4.14018880       7.00000000 
Pt      11.47362777       6.62430208       7.00000000 
Pt       5.73681388       6.62430208       7.00000000 
Pt       8.60522083       6.62430208       7.00000000 
Pt       0.00000000       0.00000000       9.34204446 
Pt       2.86840694       0.00000000       9.34204446 
Pt       5.73681388       0.00000000       9.34204446 
Pt       1.43420347       2.48411328       9.34204446 
Pt       4.30261041       2.48411328       9.34204446 
Pt       7.17101736       2.48411328       9.34204446 
Pt       2.86840694       4.96822656       9.34204446 
Pt       5.73681388       4.96822656       9.34204446 
Pt       8.60522083       4.96822656       9.34204446 
Pt       1.43420347       0.82803776      11.68408892 
Pt       4.30261041       0.82803776      11.68408892 
Pt       7.17101736       0.82803776      11.68408892 
Pt       2.86840694       3.31215104      11.68408892 
Pt       5.73681388       3.31215104      11.68408892 
Pt       8.60522083       3.31215104      11.68408892 
Pt       4.30261041       5.79626432      11.68408892 
Pt       7.17101736       5.79626432      11.68408892 
Pt      10.03942430       5.79626432      11.68408892 
Pt      12.76470240       7.36970437      16.09066862 
Pt       7.31414620       7.36970437      16.09066862 
Pt      10.03942430       7.44649549      15.95205426 
Pt      10.03942430       2.64938423      16.09066862 
Pt       4.31638061       2.49206351      15.95740875 
Pt       7.15724716       2.49206351      15.95740875 
Pt      11.46856641       4.97114873      15.95205426 
Pt       5.73681388       4.95232611      15.95740875 
Pt       8.61028218       4.97114873      15.95205426 
Os       8.63109263       1.64113843      13.78320483 
Os       2.84253514       1.64113843      13.78320483 
Os       5.73681388       1.64600404      13.80078980 
Os      10.03942430       4.10531373      13.78735091 
Os       4.29388826       4.14522454      13.80078980 
Os       7.17973951       4.14522454      13.80078980 
Os      11.50383047       6.64173962      13.78735091 
Os       5.73681388       6.65417627      13.78320483 
Os       8.57501813       6.64173962      13.78735091 
C       1.43420347       0.82803776      16.69602724 
