46
Lattice="7.991268292630401 0.0 0.0 3.9956341463152003 6.920641349875024 0.0 0.0 0.0 22.699790984278494" Properties=species:S:1:pos:R:3 pbc="T T T"
Rh       7.99126829       1.53792030       7.00000000 
Rh       2.66375610       1.53792030       7.00000000 
Rh       5.32751220       1.53792030       7.00000000 
Rh       9.32314634       3.84480075       7.00000000 
Rh       3.99563415       3.84480075       7.00000000 
Rh       6.65939024       3.84480075       7.00000000 
Rh      10.65502439       6.15168120       7.00000000 
Rh       5.32751220       6.15168120       7.00000000 
Rh       7.99126829       6.15168120       7.00000000 
Rh       0.00000000       0.00000000       9.17494775 
Rh       2.66375610       0.00000000       9.17494775 
Rh       5.32751220       0.00000000       9.17494775 
Rh       1.33187805       2.30688045       9.17494775 
Rh       3.99563415       2.30688045       9.17494775 
Rh       6.65939024       2.30688045       9.17494775 
Rh       2.66375610       4.61376090       9.17494775 
Rh       5.32751220       4.61376090       9.17494775 
Rh       7.99126829       4.61376090       9.17494775 
Rh       1.33187805       0.76896015      11.34989549 
Rh       3.99563415       0.76896015      11.34989549 
Rh       6.65939024       0.76896015      11.34989549 
Rh       2.66375610       3.07584060      11.34989549 
Rh       5.32751220       3.07584060      11.34989549 
Rh       7.99126829       3.07584060      11.34989549 
Rh       3.99563415       5.38272105      11.34989549 
Rh       6.65939024       5.38272105      11.34989549 
Rh       9.32314634       5.38272105      11.34989549 
Rh      11.95005058       6.89936492      15.61768143 
Rh       6.69624210       6.89936492      15.61768143 
Rh       5.32751220       0.00302359      15.47844518 
Rh       9.32314634       2.34943331      15.61768143 
Rh       4.02762763       2.32535189      15.48503141 
Rh       6.62739676       2.32535189      15.48503141 
Rh       2.66637460       4.61224911      15.47844518 
Rh       5.32751220       4.57681801      15.48503141 
Rh       7.98864979       4.61224911      15.47844518 
Ni       7.99928469       1.53329203      13.46809423 
Ni       2.65573970       1.53329203      13.46809423 
Ni       5.32751220       1.53222443      13.44475618 
Ni       9.32314634       3.82819346      13.45595010 
Ni       3.99070138       3.84764868      13.44475618 
Ni       6.66432301       3.84764868      13.44475618 
Ni      10.66940672       6.15998484      13.45595010 
Ni       5.32751220       6.16093773      13.46809423 
Ni       7.97688596       6.15998484      13.45595010 
O       1.33187805       0.76896015      16.82216186 
